MODEL 1
REMARK VINA RESULT:     -10.8      0.000      0.000
REMARK  10 active torsions:
REMARK  status: ('A' for Active; 'I' for Inactive)
REMARK    1  A    between atoms: C10_10  and  S1_11 
REMARK    2  A    between atoms: N1_14  and  N2_15 
REMARK    3  A    between atoms: N2_15  and  C11_16 
REMARK    4  A    between atoms: C13_18  and  C27_39 
REMARK    5  A    between atoms: C14_19  and  O6_38 
REMARK    6  A    between atoms: C15_20  and  N3_23 
REMARK    7  A    between atoms: C16_21  and  O3_22 
REMARK    8  A    between atoms: N3_23  and  N4_24 
REMARK    9  A    between atoms: C20_28  and  S2_35 
REMARK   10  A    between atoms: C27_39  and  O7_40 
ROOT
ATOM      1  C11 <0> d         148.938 105.702  22.208  0.00  0.00     0.115 A 
ATOM      2  C12 <0> d         148.753 106.458  23.372  0.00  0.00    -0.040 A 
ATOM      3  C13 <0> d         148.267 107.745  23.295  0.00  0.00     0.003 A 
ATOM      4  C14 <0> d         147.954 108.307  22.065  0.00  0.00     0.107 A 
ATOM      5  C15 <0> d         148.138 107.567  20.885  0.00  0.00     0.148 A 
ATOM      6  C16 <0> d         148.627 106.256  20.958  0.00  0.00     0.130 A 
ATOM      7  H7  <0> d         148.993 106.031  24.334  0.00  0.00     0.088 H 
ENDROOT
BRANCH   1   8
ATOM      8  N2  <0> d         149.419 104.430  22.290  0.00  0.00    -0.147 NA
BRANCH   8   9
ATOM      9  N1  <0> d         150.553 104.133  21.751  0.00  0.00    -0.149 NA
ATOM     10  C7  <0> d         151.714 104.508  22.357  0.00  0.00     0.090 A 
ATOM     11  C5  <0> d         153.007 104.180  21.760  0.00  0.00     0.006 A 
ATOM     12  C8  <0> d         151.694 105.217  23.553  0.00  0.00    -0.051 A 
ATOM     13  C4  <0> d         154.190 104.590  22.424  0.00  0.00     0.001 A 
ATOM     14  C6  <0> d         153.099 103.476  20.554  0.00  0.00    -0.070 A 
ATOM     15  C3  <0> d         155.438 104.278  21.856  0.00  0.00    -0.071 A 
ATOM     16  C10 <0> d         154.094 105.299  23.633  0.00  0.00     0.091 A 
ATOM     17  C2  <0> d         155.490 103.591  20.682  0.00  0.00    -0.082 A 
ATOM     18  H3  <0> d         156.350 104.583  22.348  0.00  0.00     0.084 H 
ATOM     19  C1  <0> d         154.326 103.191  20.032  0.00  0.00    -0.082 A 
ATOM     20  H2  <0> d         156.451 103.354  20.248  0.00  0.00     0.083 H 
ATOM     21  H1  <0> d         154.396 102.647  19.101  0.00  0.00     0.083 H 
ATOM     22  C9  <0> d         152.878 105.595  24.170  0.00  0.00    -0.056 A 
ATOM     23  H6  <0> d         152.835 106.141  25.100  0.00  0.00     0.086 H 
ATOM     24  H4  <0> d         152.203 103.160  20.041  0.00  0.00     0.084 H 
ATOM     25  H5  <0> d         150.748 105.473  24.009  0.00  0.00     0.087 H 
BRANCH  16  26
ATOM     26  S1  <0> d         155.562 105.811  24.462  0.00  0.00     0.138 S 
ATOM     27  O1  <0> d         156.106 104.651  25.077  0.00  0.00    -0.591 OA
ATOM     28  O2  <0> d         156.298 106.598  23.536  0.00  0.00    -0.591 OA
ATOM     29  O8  <0> d         155.140 106.744  25.588  0.00  0.00    -0.591 OA
ENDBRANCH  16  26
ENDBRANCH   8   9
ENDBRANCH   1   8
BRANCH   6  30
ATOM     30  O3  <0> d         148.803 105.529  19.827  0.00  0.00    -0.356 OA
ATOM     31  H8  <0> d         148.303 105.856  19.067  0.00  0.00     0.218 HD
ENDBRANCH   6  30
BRANCH   5  32
ATOM     32  N3  <0> d         147.838 108.118  19.677  0.00  0.00    -0.144 NA
BRANCH  32  33
ATOM     33  N4  <0> d         146.909 109.009  19.587  0.00  0.00    -0.149 NA
ATOM     34  C17 <0> d         147.055 110.062  18.735  0.00  0.00     0.090 A 
ATOM     35  C22 <0> d         146.012 111.080  18.621  0.00  0.00     0.006 A 
ATOM     36  C18 <0> d         148.202 110.195  17.959  0.00  0.00    -0.051 A 
ATOM     37  C21 <0> d         146.203 112.159  17.722  0.00  0.00     0.001 A 
ATOM     38  C23 <0> d         144.835 111.010  19.376  0.00  0.00    -0.070 A 
ATOM     39  C20 <0> d         147.386 112.225  16.967  0.00  0.00     0.091 A 
ATOM     40  C26 <0> d         145.206 113.141  17.609  0.00  0.00    -0.071 A 
ATOM     41  C19 <0> d         148.345 111.266  17.090  0.00  0.00    -0.056 A 
ATOM     42  H10 <0> d         149.243 111.344  16.495  0.00  0.00     0.086 H 
ATOM     43  C25 <0> d         144.074 113.043  18.358  0.00  0.00    -0.082 A 
ATOM     44  H14 <0> d         145.337 113.971  16.930  0.00  0.00     0.084 H 
ATOM     45  C24 <0> d         143.889 111.981  19.240  0.00  0.00    -0.082 A 
ATOM     46  H13 <0> d         143.308 113.799  18.268  0.00  0.00     0.083 H 
ATOM     47  H12 <0> d         142.981 111.926  19.823  0.00  0.00     0.083 H 
ATOM     48  H11 <0> d         144.680 110.192  20.065  0.00  0.00     0.084 H 
ATOM     49  H9  <0> d         148.986 109.457  18.032  0.00  0.00     0.087 H 
BRANCH  39  50
ATOM     50  S2  <0> d         147.630 113.565  15.848  0.00  0.00     0.138 S 
ATOM     51  O4  <0> d         146.809 113.304  14.718  0.00  0.00    -0.591 OA
ATOM     52  O5  <0> d         147.519 114.757  16.612  0.00  0.00    -0.591 OA
ATOM     53  O9  <0> d         149.072 113.490  15.364  0.00  0.00    -0.591 OA
ENDBRANCH  39  50
ENDBRANCH  32  33
ENDBRANCH   5  32
BRANCH   3  54
ATOM     54  C27 <0> d         148.072 108.549  24.555  0.00  0.00     0.043 C 
ATOM     55  H16 <0> d         147.090 109.018  24.538  0.00  0.00     0.081 H 
ATOM     56  H17 <0> d         148.146 107.891  25.421  0.00  0.00     0.081 H 
BRANCH  54  57
ATOM     57  O7  <0> d         149.081 109.558  24.636  0.00  0.00    -0.396 OA
ATOM     58  H18 <0> d         149.115 110.143  23.868  0.00  0.00     0.209 HD
ENDBRANCH  54  57
ENDBRANCH   3  54
BRANCH   4  59
ATOM     59  O6  <0> d         147.477 109.575  22.001  0.00  0.00    -0.358 OA
ATOM     60  H15 <0> d         146.557 109.664  22.283  0.00  0.00     0.217 HD
ENDBRANCH   4  59
TORSDOF 10
ENDMDL
MODEL 2
REMARK VINA RESULT:     -10.6      1.106      2.343
REMARK  10 active torsions:
REMARK  status: ('A' for Active; 'I' for Inactive)
REMARK    1  A    between atoms: C10_10  and  S1_11 
REMARK    2  A    between atoms: N1_14  and  N2_15 
REMARK    3  A    between atoms: N2_15  and  C11_16 
REMARK    4  A    between atoms: C13_18  and  C27_39 
REMARK    5  A    between atoms: C14_19  and  O6_38 
REMARK    6  A    between atoms: C15_20  and  N3_23 
REMARK    7  A    between atoms: C16_21  and  O3_22 
REMARK    8  A    between atoms: N3_23  and  N4_24 
REMARK    9  A    between atoms: C20_28  and  S2_35 
REMARK   10  A    between atoms: C27_39  and  O7_40 
ROOT
ATOM      1  C11 <0> d         148.509 106.316  22.572  0.00  0.00     0.115 A 
ATOM      2  C12 <0> d         148.614 107.213  23.642  0.00  0.00    -0.040 A 
ATOM      3  C13 <0> d         148.183 108.514  23.504  0.00  0.00     0.003 A 
ATOM      4  C14 <0> d         147.637 108.951  22.304  0.00  0.00     0.107 A 
ATOM      5  C15 <0> d         147.527 108.067  21.217  0.00  0.00     0.148 A 
ATOM      6  C16 <0> d         147.960 106.742  21.354  0.00  0.00     0.130 A 
ATOM      7  H7  <0> d         149.037 106.884  24.579  0.00  0.00     0.088 H 
ENDROOT
BRANCH   1   8
ATOM      8  N2  <0> d         148.938 105.030  22.715  0.00  0.00    -0.147 NA
BRANCH   8   9
ATOM      9  N1  <0> d         149.896 104.585  21.975  0.00  0.00    -0.149 NA
ATOM     10  C7  <0> d         151.190 104.737  22.373  0.00  0.00     0.090 A 
ATOM     11  C5  <0> d         152.288 104.238  21.546  0.00  0.00     0.006 A 
ATOM     12  C8  <0> d         151.495 105.375  23.569  0.00  0.00    -0.051 A 
ATOM     13  C4  <0> d         153.619 104.417  21.998  0.00  0.00     0.001 A 
ATOM     14  C6  <0> d         152.052 103.592  20.328  0.00  0.00    -0.070 A 
ATOM     15  C3  <0> d         154.681 103.940  21.209  0.00  0.00    -0.071 A 
ATOM     16  C10 <0> d         153.853 105.067  23.221  0.00  0.00     0.091 A 
ATOM     17  C2  <0> d         154.415 103.316  20.029  0.00  0.00    -0.082 A 
ATOM     18  H3  <0> d         155.702 104.068  21.538  0.00  0.00     0.084 H 
ATOM     19  C1  <0> d         153.105 103.142  19.588  0.00  0.00    -0.082 A 
ATOM     20  H2  <0> d         155.233 102.951  19.425  0.00  0.00     0.083 H 
ATOM     21  H1  <0> d         152.922 102.644  18.647  0.00  0.00     0.083 H 
ATOM     22  C9  <0> d         152.815 105.525  23.974  0.00  0.00    -0.056 A 
ATOM     23  H6  <0> d         153.024 106.022  24.909  0.00  0.00     0.086 H 
ATOM     24  H4  <0> d         151.041 103.451  19.975  0.00  0.00     0.084 H 
ATOM     25  H5  <0> d         150.698 105.755  24.193  0.00  0.00     0.087 H 
BRANCH  16  26
ATOM     26  S1  <0> d         155.507 105.293  23.787  0.00  0.00     0.138 S 
ATOM     27  O1  <0> d         155.464 105.211  25.205  0.00  0.00    -0.591 OA
ATOM     28  O2  <0> d         156.325 104.442  22.998  0.00  0.00    -0.591 OA
ATOM     29  O8  <0> d         155.907 106.721  23.445  0.00  0.00    -0.591 OA
ENDBRANCH  16  26
ENDBRANCH   8   9
ENDBRANCH   1   8
BRANCH   6  30
ATOM     30  O3  <0> d         147.854 105.879  20.314  0.00  0.00    -0.356 OA
ATOM     31  H8  <0> d         147.010 105.929  19.845  0.00  0.00     0.218 HD
ENDBRANCH   6  30
BRANCH   5  32
ATOM     32  N3  <0> d         146.998 108.495  20.038  0.00  0.00    -0.144 NA
BRANCH  32  33
ATOM     33  N4  <0> d         147.763 109.010  19.136  0.00  0.00    -0.149 NA
ATOM     34  C17 <0> d         147.453 110.218  18.588  0.00  0.00     0.090 A 
ATOM     35  C22 <0> d         148.309 110.816  17.564  0.00  0.00     0.006 A 
ATOM     36  C18 <0> d         146.311 110.906  18.985  0.00  0.00    -0.051 A 
ATOM     37  C21 <0> d         147.950 112.074  17.021  0.00  0.00     0.001 A 
ATOM     38  C23 <0> d         149.469 110.174  17.115  0.00  0.00    -0.070 A 
ATOM     39  C20 <0> d         146.784 112.714  17.474  0.00  0.00     0.091 A 
ATOM     40  C26 <0> d         148.768 112.653  16.036  0.00  0.00    -0.071 A 
ATOM     41  C19 <0> d         146.001 112.138  18.427  0.00  0.00    -0.056 A 
ATOM     42  H10 <0> d         145.111 112.655  18.756  0.00  0.00     0.086 H 
ATOM     43  C25 <0> d         149.888 112.002  15.622  0.00  0.00    -0.082 A 
ATOM     44  H14 <0> d         148.508 113.611  15.610  0.00  0.00     0.084 H 
ATOM     45  C24 <0> d         150.239 110.765  16.159  0.00  0.00    -0.082 A 
ATOM     46  H13 <0> d         150.516 112.450  14.865  0.00  0.00     0.083 H 
ATOM     47  H12 <0> d         151.134 110.269  15.813  0.00  0.00     0.083 H 
ATOM     48  H11 <0> d         149.751 109.214  17.523  0.00  0.00     0.084 H 
ATOM     49  H9  <0> d         145.663 110.481  19.735  0.00  0.00     0.087 H 
BRANCH  39  50
ATOM     50  S2  <0> d         146.333 114.279  16.801  0.00  0.00     0.138 S 
ATOM     51  O4  <0> d         147.274 115.221  17.296  0.00  0.00    -0.591 OA
ATOM     52  O5  <0> d         146.116 114.076  15.412  0.00  0.00    -0.591 OA
ATOM     53  O9  <0> d         144.985 114.655  17.402  0.00  0.00    -0.591 OA
ENDBRANCH  39  50
ENDBRANCH  32  33
ENDBRANCH   5  32
BRANCH   3  54
ATOM     54  C27 <0> d         148.302 109.470  24.663  0.00  0.00     0.043 C 
ATOM     55  H16 <0> d         147.331 109.921  24.862  0.00  0.00     0.081 H 
ATOM     56  H17 <0> d         148.640 108.930  25.547  0.00  0.00     0.081 H 
BRANCH  54  57
ATOM     57  O7  <0> d         149.246 110.493  24.340  0.00  0.00    -0.396 OA
ATOM     58  H18 <0> d         150.148 110.302  24.629  0.00  0.00     0.209 HD
ENDBRANCH  54  57
ENDBRANCH   3  54
BRANCH   4  59
ATOM     59  O6  <0> d         147.216 110.234  22.179  0.00  0.00    -0.358 OA
ATOM     60  H15 <0> d         147.912 110.853  21.921  0.00  0.00     0.217 HD
ENDBRANCH   4  59
TORSDOF 10
ENDMDL
MODEL 3
REMARK VINA RESULT:     -10.6      2.812     10.082
REMARK  10 active torsions:
REMARK  status: ('A' for Active; 'I' for Inactive)
REMARK    1  A    between atoms: C10_10  and  S1_11 
REMARK    2  A    between atoms: N1_14  and  N2_15 
REMARK    3  A    between atoms: N2_15  and  C11_16 
REMARK    4  A    between atoms: C13_18  and  C27_39 
REMARK    5  A    between atoms: C14_19  and  O6_38 
REMARK    6  A    between atoms: C15_20  and  N3_23 
REMARK    7  A    between atoms: C16_21  and  O3_22 
REMARK    8  A    between atoms: N3_23  and  N4_24 
REMARK    9  A    between atoms: C20_28  and  S2_35 
REMARK   10  A    between atoms: C27_39  and  O7_40 
ROOT
ATOM      1  C11 <0> d         148.459 104.988  19.859  0.00  0.00     0.115 A 
ATOM      2  C12 <0> d         148.650 105.518  18.577  0.00  0.00    -0.040 A 
ATOM      3  C13 <0> d         149.715 105.107  17.806  0.00  0.00     0.003 A 
ATOM      4  C14 <0> d         150.610 104.162  18.288  0.00  0.00     0.107 A 
ATOM      5  C15 <0> d         150.439 103.621  19.574  0.00  0.00     0.148 A 
ATOM      6  C16 <0> d         149.356 104.033  20.360  0.00  0.00     0.130 A 
ATOM      7  H7  <0> d         147.960 106.254  18.193  0.00  0.00     0.088 H 
ENDROOT
BRANCH   1   8
ATOM      8  N2  <0> d         147.405 105.398  20.618  0.00  0.00    -0.147 NA
BRANCH   8   9
ATOM      9  N1  <0> d         147.591 106.239  21.580  0.00  0.00    -0.149 NA
ATOM     10  C7  <0> d         147.198 107.535  21.436  0.00  0.00     0.090 A 
ATOM     11  C5  <0> d         147.401 108.500  22.515  0.00  0.00     0.006 A 
ATOM     12  C8  <0> d         146.601 107.971  20.258  0.00  0.00    -0.051 A 
ATOM     13  C4  <0> d         146.978 109.839  22.325  0.00  0.00     0.001 A 
ATOM     14  C6  <0> d         148.002 108.130  23.724  0.00  0.00    -0.070 A 
ATOM     15  C3  <0> d         147.169 110.773  23.357  0.00  0.00    -0.071 A 
ATOM     16  C10 <0> d         146.377 110.206  21.109  0.00  0.00     0.091 A 
ATOM     17  C2  <0> d         147.757 110.379  24.520  0.00  0.00    -0.082 A 
ATOM     18  H3  <0> d         146.852 111.797  23.229  0.00  0.00     0.084 H 
ATOM     19  C1  <0> d         148.172 109.062  24.705  0.00  0.00    -0.082 A 
ATOM     20  H2  <0> d         147.904 111.099  25.312  0.00  0.00     0.083 H 
ATOM     21  H1  <0> d         148.637 108.776  25.637  0.00  0.00     0.083 H 
ATOM     22  C9  <0> d         146.199 109.291  20.117  0.00  0.00    -0.056 A 
ATOM     23  H6  <0> d         145.735 109.603  19.193  0.00  0.00     0.086 H 
ATOM     24  H4  <0> d         148.328 107.113  23.879  0.00  0.00     0.084 H 
ATOM     25  H5  <0> d         146.446 107.274  19.447  0.00  0.00     0.087 H 
BRANCH  16  26
ATOM     26  S1  <0> d         145.848 111.870  20.866  0.00  0.00     0.138 S 
ATOM     27  O1  <0> d         144.466 111.908  21.191  0.00  0.00    -0.591 OA
ATOM     28  O2  <0> d         146.805 112.698  21.511  0.00  0.00    -0.591 OA
ATOM     29  O8  <0> d         145.954 112.162  19.376  0.00  0.00    -0.591 OA
ENDBRANCH  16  26
ENDBRANCH   8   9
ENDBRANCH   1   8
BRANCH   6  30
ATOM     30  O3  <0> d         149.177 103.514  21.600  0.00  0.00    -0.356 OA
ATOM     31  H8  <0> d         149.087 102.552  21.616  0.00  0.00     0.218 HD
ENDBRANCH   6  30
BRANCH   5  32
ATOM     32  N3  <0> d         151.320 102.699  20.051  0.00  0.00    -0.144 NA
BRANCH  32  33
ATOM     33  N4  <0> d         152.588 102.882  19.907  0.00  0.00    -0.149 NA
ATOM     34  C17 <0> d         153.285 103.586  20.843  0.00  0.00     0.090 A 
ATOM     35  C22 <0> d         154.723 103.804  20.695  0.00  0.00     0.006 A 
ATOM     36  C18 <0> d         152.643 104.118  21.956  0.00  0.00    -0.051 A 
ATOM     37  C21 <0> d         155.410 104.540  21.692  0.00  0.00     0.001 A 
ATOM     38  C23 <0> d         155.431 103.301  19.597  0.00  0.00    -0.070 A 
ATOM     39  C20 <0> d         154.696 105.044  22.792  0.00  0.00     0.091 A 
ATOM     40  C26 <0> d         156.792 104.754  21.556  0.00  0.00    -0.071 A 
ATOM     41  C19 <0> d         153.357 104.830  22.909  0.00  0.00    -0.056 A 
ATOM     42  H10 <0> d         152.835 105.229  23.766  0.00  0.00     0.086 H 
ATOM     43  C25 <0> d         157.448 104.251  20.475  0.00  0.00    -0.082 A 
ATOM     44  H14 <0> d         157.330 105.315  22.305  0.00  0.00     0.084 H 
ATOM     45  C24 <0> d         156.770 103.527  19.498  0.00  0.00    -0.082 A 
ATOM     46  H13 <0> d         158.511 104.416  20.373  0.00  0.00     0.083 H 
ATOM     47  H12 <0> d         157.315 103.138  18.649  0.00  0.00     0.083 H 
ATOM     48  H11 <0> d         154.916 102.738  18.831  0.00  0.00     0.084 H 
ATOM     49  H9  <0> d         151.581 103.973  22.081  0.00  0.00     0.087 H 
BRANCH  39  50
ATOM     50  S2  <0> d         155.545 105.961  24.034  0.00  0.00     0.138 S 
ATOM     51  O4  <0> d         156.233 105.014  24.840  0.00  0.00    -0.591 OA
ATOM     52  O5  <0> d         156.213 107.024  23.369  0.00  0.00    -0.591 OA
ATOM     53  O9  <0> d         154.487 106.600  24.924  0.00  0.00    -0.591 OA
ENDBRANCH  39  50
ENDBRANCH  32  33
ENDBRANCH   5  32
BRANCH   3  54
ATOM     54  C27 <0> d         149.908 105.686  16.428  0.00  0.00     0.043 C 
ATOM     55  H16 <0> d         149.925 104.880  15.695  0.00  0.00     0.081 H 
ATOM     56  H17 <0> d         149.089 106.367  16.201  0.00  0.00     0.081 H 
BRANCH  54  57
ATOM     57  O7  <0> d         151.147 106.397  16.381  0.00  0.00    -0.396 OA
ATOM     58  H18 <0> d         151.384 106.716  15.499  0.00  0.00     0.209 HD
ENDBRANCH  54  57
ENDBRANCH   3  54
BRANCH   4  59
ATOM     59  O6  <0> d         151.655 103.764  17.520  0.00  0.00    -0.358 OA
ATOM     60  H15 <0> d         151.594 104.046  16.597  0.00  0.00     0.217 HD
ENDBRANCH   4  59
TORSDOF 10
ENDMDL
MODEL 4
REMARK VINA RESULT:     -10.5      2.653     10.544
REMARK  10 active torsions:
REMARK  status: ('A' for Active; 'I' for Inactive)
REMARK    1  A    between atoms: C10_10  and  S1_11 
REMARK    2  A    between atoms: N1_14  and  N2_15 
REMARK    3  A    between atoms: N2_15  and  C11_16 
REMARK    4  A    between atoms: C13_18  and  C27_39 
REMARK    5  A    between atoms: C14_19  and  O6_38 
REMARK    6  A    between atoms: C15_20  and  N3_23 
REMARK    7  A    between atoms: C16_21  and  O3_22 
REMARK    8  A    between atoms: N3_23  and  N4_24 
REMARK    9  A    between atoms: C20_28  and  S2_35 
REMARK   10  A    between atoms: C27_39  and  O7_40 
ROOT
ATOM      1  C11 <0> d         148.588 107.173  20.119  0.00  0.00     0.115 A 
ATOM      2  C12 <0> d         147.275 106.712  20.273  0.00  0.00    -0.040 A 
ATOM      3  C13 <0> d         147.035 105.413  20.665  0.00  0.00     0.003 A 
ATOM      4  C14 <0> d         148.092 104.547  20.914  0.00  0.00     0.107 A 
ATOM      5  C15 <0> d         149.417 104.990  20.761  0.00  0.00     0.148 A 
ATOM      6  C16 <0> d         149.665 106.310  20.366  0.00  0.00     0.130 A 
ATOM      7  H7  <0> d         146.446 107.377  20.082  0.00  0.00     0.088 H 
ENDROOT
BRANCH   1   8
ATOM      8  N2  <0> d         148.818 108.459  19.730  0.00  0.00    -0.147 NA
BRANCH   8   9
ATOM      9  N1  <0> d         148.334 108.892  18.616  0.00  0.00    -0.149 NA
ATOM     10  C7  <0> d         147.451 109.930  18.615  0.00  0.00     0.090 A 
ATOM     11  C5  <0> d         146.893 110.433  17.361  0.00  0.00     0.006 A 
ATOM     12  C8  <0> d         147.057 110.528  19.806  0.00  0.00    -0.051 A 
ATOM     13  C4  <0> d         145.977 111.513  17.405  0.00  0.00     0.001 A 
ATOM     14  C6  <0> d         147.241 109.871  16.127  0.00  0.00    -0.070 A 
ATOM     15  C3  <0> d         145.436 112.003  16.204  0.00  0.00    -0.071 A 
ATOM     16  C10 <0> d         145.628 112.073  18.645  0.00  0.00     0.091 A 
ATOM     17  C2  <0> d         145.797 111.434  15.021  0.00  0.00    -0.082 A 
ATOM     18  H3  <0> d         144.737 112.827  16.219  0.00  0.00     0.084 H 
ATOM     19  C1  <0> d         146.697 110.371  14.981  0.00  0.00    -0.082 A 
ATOM     20  H2  <0> d         145.379 111.812  14.099  0.00  0.00     0.083 H 
ATOM     21  H1  <0> d         146.967 109.937  14.029  0.00  0.00     0.083 H 
ATOM     22  C9  <0> d         146.160 111.587  19.801  0.00  0.00    -0.056 A 
ATOM     23  H6  <0> d         145.872 112.036  20.740  0.00  0.00     0.086 H 
ATOM     24  H4  <0> d         147.938 109.048  16.083  0.00  0.00     0.084 H 
ATOM     25  H5  <0> d         147.454 110.168  20.744  0.00  0.00     0.087 H 
BRANCH  16  26
ATOM     26  S1  <0> d         144.490 113.417  18.706  0.00  0.00     0.138 S 
ATOM     27  O1  <0> d         145.108 114.502  18.029  0.00  0.00    -0.591 OA
ATOM     28  O2  <0> d         143.227 112.897  18.317  0.00  0.00    -0.591 OA
ATOM     29  O8  <0> d         144.360 113.830  20.165  0.00  0.00    -0.591 OA
ENDBRANCH  16  26
ENDBRANCH   8   9
ENDBRANCH   1   8
BRANCH   6  30
ATOM     30  O3  <0> d         150.939 106.751  20.220  0.00  0.00    -0.356 OA
ATOM     31  H8  <0> d         151.572 106.333  20.820  0.00  0.00     0.218 HD
ENDBRANCH   6  30
BRANCH   5  32
ATOM     32  N3  <0> d         150.454 104.140  20.998  0.00  0.00    -0.144 NA
BRANCH  32  33
ATOM     33  N4  <0> d         151.330 104.427  21.900  0.00  0.00    -0.149 NA
ATOM     34  C17 <0> d         152.656 104.416  21.589  0.00  0.00     0.090 A 
ATOM     35  C22 <0> d         153.663 104.738  22.600  0.00  0.00     0.006 A 
ATOM     36  C18 <0> d         153.083 104.091  20.306  0.00  0.00    -0.051 A 
ATOM     37  C21 <0> d         155.031 104.716  22.235  0.00  0.00     0.001 A 
ATOM     38  C23 <0> d         153.303 105.069  23.912  0.00  0.00    -0.070 A 
ATOM     39  C20 <0> d         155.388 104.382  20.917  0.00  0.00     0.091 A 
ATOM     40  C26 <0> d         156.004 105.023  23.201  0.00  0.00    -0.071 A 
ATOM     41  C19 <0> d         154.434 104.084  19.993  0.00  0.00    -0.056 A 
ATOM     42  H10 <0> d         154.739 103.832  18.987  0.00  0.00     0.086 H 
ATOM     43  C25 <0> d         155.619 105.340  24.467  0.00  0.00    -0.082 A 
ATOM     44  H14 <0> d         157.052 105.009  22.940  0.00  0.00     0.084 H 
ATOM     45  C24 <0> d         154.272 105.363  24.823  0.00  0.00    -0.082 A 
ATOM     46  H13 <0> d         156.368 105.577  25.208  0.00  0.00     0.083 H 
ATOM     47  H12 <0> d         153.993 105.618  25.835  0.00  0.00     0.083 H 
ATOM     48  H11 <0> d         152.261 105.089  24.200  0.00  0.00     0.084 H 
ATOM     49  H9  <0> d         152.356 103.845  19.547  0.00  0.00     0.087 H 
BRANCH  39  50
ATOM     50  S2  <0> d         157.089 104.352  20.457  0.00  0.00     0.138 S 
ATOM     51  O4  <0> d         157.580 105.674  20.630  0.00  0.00    -0.591 OA
ATOM     52  O5  <0> d         157.667 103.232  21.114  0.00  0.00    -0.591 OA
ATOM     53  O9  <0> d         157.146 104.059  18.964  0.00  0.00    -0.591 OA
ENDBRANCH  39  50
ENDBRANCH  32  33
ENDBRANCH   5  32
BRANCH   3  54
ATOM     54  C27 <0> d         145.617 104.929  20.828  0.00  0.00     0.043 C 
ATOM     55  H16 <0> d         145.392 104.200  20.050  0.00  0.00     0.081 H 
ATOM     56  H17 <0> d         145.502 104.464  21.806  0.00  0.00     0.081 H 
BRANCH  54  57
ATOM     57  O7  <0> d         144.721 106.036  20.717  0.00  0.00    -0.396 OA
ATOM     58  H18 <0> d         143.889 105.918  21.194  0.00  0.00     0.209 HD
ENDBRANCH  54  57
ENDBRANCH   3  54
BRANCH   4  59
ATOM     59  O6  <0> d         147.845 103.271  21.300  0.00  0.00    -0.358 OA
ATOM     60  H15 <0> d         148.640 102.731  21.405  0.00  0.00     0.217 HD
ENDBRANCH   4  59
TORSDOF 10
ENDMDL
MODEL 5
REMARK VINA RESULT:     -10.4      2.693      4.604
REMARK  10 active torsions:
REMARK  status: ('A' for Active; 'I' for Inactive)
REMARK    1  A    between atoms: C10_10  and  S1_11 
REMARK    2  A    between atoms: N1_14  and  N2_15 
REMARK    3  A    between atoms: N2_15  and  C11_16 
REMARK    4  A    between atoms: C13_18  and  C27_39 
REMARK    5  A    between atoms: C14_19  and  O6_38 
REMARK    6  A    between atoms: C15_20  and  N3_23 
REMARK    7  A    between atoms: C16_21  and  O3_22 
REMARK    8  A    between atoms: N3_23  and  N4_24 
REMARK    9  A    between atoms: C20_28  and  S2_35 
REMARK   10  A    between atoms: C27_39  and  O7_40 
ROOT
ATOM      1  C11 <0> d         150.639 103.669  19.301  0.00  0.00     0.115 A 
ATOM      2  C12 <0> d         150.978 104.087  18.008  0.00  0.00    -0.040 A 
ATOM      3  C13 <0> d         150.198 105.012  17.349  0.00  0.00     0.003 A 
ATOM      4  C14 <0> d         149.070 105.543  17.959  0.00  0.00     0.107 A 
ATOM      5  C15 <0> d         148.710 105.134  19.255  0.00  0.00     0.148 A 
ATOM      6  C16 <0> d         149.502 104.196  19.930  0.00  0.00     0.130 A 
ATOM      7  H7  <0> d         151.853 103.680  17.524  0.00  0.00     0.088 H 
ENDROOT
BRANCH   1   8
ATOM      8  N2  <0> d         151.413 102.753  19.947  0.00  0.00    -0.147 NA
BRANCH   8   9
ATOM      9  N1  <0> d         152.700 102.846  19.897  0.00  0.00    -0.149 NA
ATOM     10  C7  <0> d         153.370 103.543  20.857  0.00  0.00     0.090 A 
ATOM     11  C5  <0> d         154.827 103.658  20.815  0.00  0.00     0.006 A 
ATOM     12  C8  <0> d         152.683 104.165  21.893  0.00  0.00    -0.051 A 
ATOM     13  C4  <0> d         155.484 104.393  21.833  0.00  0.00     0.001 A 
ATOM     14  C6  <0> d         155.578 103.063  19.796  0.00  0.00    -0.070 A 
ATOM     15  C3  <0> d         156.884 104.508  21.800  0.00  0.00    -0.071 A 
ATOM     16  C10 <0> d         154.725 104.991  22.853  0.00  0.00     0.091 A 
ATOM     17  C2  <0> d         157.585 103.916  20.794  0.00  0.00    -0.082 A 
ATOM     18  H3  <0> d         157.402 105.064  22.568  0.00  0.00     0.084 H 
ATOM     19  C1  <0> d         156.935 103.195  19.795  0.00  0.00    -0.082 A 
ATOM     20  H2  <0> d         158.661 104.006  20.771  0.00  0.00     0.083 H 
ATOM     21  H1  <0> d         157.515 102.735  19.008  0.00  0.00     0.083 H 
ATOM     22  C9  <0> d         153.369 104.872  22.871  0.00  0.00    -0.056 A 
ATOM     23  H6  <0> d         152.812 105.343  23.667  0.00  0.00     0.086 H 
ATOM     24  H4  <0> d         155.087 102.501  19.016  0.00  0.00     0.084 H 
ATOM     25  H5  <0> d         151.606 104.096  21.940  0.00  0.00     0.087 H 
BRANCH  16  26
ATOM     26  S1  <0> d         155.538 105.906  24.121  0.00  0.00     0.138 S 
ATOM     27  O1  <0> d         156.125 104.952  24.995  0.00  0.00    -0.591 OA
ATOM     28  O2  <0> d         156.299 106.913  23.471  0.00  0.00    -0.591 OA
ATOM     29  O8  <0> d         154.459 106.623  24.920  0.00  0.00    -0.591 OA
ENDBRANCH  16  26
ENDBRANCH   8   9
ENDBRANCH   1   8
BRANCH   6  30
ATOM     30  O3  <0> d         149.168 103.797  21.182  0.00  0.00    -0.356 OA
ATOM     31  H8  <0> d         148.332 104.161  21.502  0.00  0.00     0.218 HD
ENDBRANCH   6  30
BRANCH   5  32
ATOM     32  N3  <0> d         147.600 105.649  19.852  0.00  0.00    -0.144 NA
BRANCH  32  33
ATOM     33  N4  <0> d         147.715 106.367  20.917  0.00  0.00    -0.149 NA
ATOM     34  C17 <0> d         147.275 107.657  20.919  0.00  0.00     0.090 A 
ATOM     35  C22 <0> d         147.397 108.485  22.118  0.00  0.00     0.006 A 
ATOM     36  C18 <0> d         146.706 108.215  19.780  0.00  0.00    -0.051 A 
ATOM     37  C21 <0> d         146.927 109.821  22.078  0.00  0.00     0.001 A 
ATOM     38  C23 <0> d         147.965 107.987  23.297  0.00  0.00    -0.070 A 
ATOM     39  C20 <0> d         146.359 110.317  20.893  0.00  0.00     0.091 A 
ATOM     40  C26 <0> d         147.043 110.623  23.226  0.00  0.00    -0.071 A 
ATOM     41  C19 <0> d         146.256 109.528  19.788  0.00  0.00    -0.056 A 
ATOM     42  H10 <0> d         145.814 109.937  18.891  0.00  0.00     0.086 H 
ATOM     43  C25 <0> d         147.600 110.107  24.355  0.00  0.00    -0.082 A 
ATOM     44  H14 <0> d         146.691 111.643  23.212  0.00  0.00     0.084 H 
ATOM     45  C24 <0> d         148.061 108.793  24.391  0.00  0.00    -0.082 A 
ATOM     46  H13 <0> d         147.687 110.725  25.237  0.00  0.00     0.083 H 
ATOM     47  H12 <0> d         148.499 108.407  25.301  0.00  0.00     0.083 H 
ATOM     48  H11 <0> d         148.327 106.969  23.337  0.00  0.00     0.084 H 
ATOM     49  H9  <0> d         146.611 107.623  18.883  0.00  0.00     0.087 H 
BRANCH  39  50
ATOM     50  S2  <0> d         145.772 111.977  20.837  0.00  0.00     0.138 S 
ATOM     51  O4  <0> d         144.389 111.931  21.161  0.00  0.00    -0.591 OA
ATOM     52  O5  <0> d         146.701 112.761  21.573  0.00  0.00    -0.591 OA
ATOM     53  O9  <0> d         145.864 112.438  19.389  0.00  0.00    -0.591 OA
ENDBRANCH  39  50
ENDBRANCH  32  33
ENDBRANCH   5  32
BRANCH   3  54
ATOM     54  C27 <0> d         150.573 105.454  15.958  0.00  0.00     0.043 C 
ATOM     55  H16 <0> d         149.680 105.492  15.336  0.00  0.00     0.081 H 
ATOM     56  H17 <0> d         151.030 106.442  16.001  0.00  0.00     0.081 H 
BRANCH  54  57
ATOM     57  O7  <0> d         151.503 104.523  15.399  0.00  0.00    -0.396 OA
ATOM     58  H18 <0> d         151.351 104.329  14.464  0.00  0.00     0.209 HD
ENDBRANCH  54  57
ENDBRANCH   3  54
BRANCH   4  59
ATOM     59  O6  <0> d         148.309 106.454  17.302  0.00  0.00    -0.358 OA
ATOM     60  H15 <0> d         148.423 107.361  17.616  0.00  0.00     0.217 HD
ENDBRANCH   4  59
TORSDOF 10
ENDMDL
MODEL 6
REMARK VINA RESULT:     -10.3      1.480      2.051
REMARK  10 active torsions:
REMARK  status: ('A' for Active; 'I' for Inactive)
REMARK    1  A    between atoms: C10_10  and  S1_11 
REMARK    2  A    between atoms: N1_14  and  N2_15 
REMARK    3  A    between atoms: N2_15  and  C11_16 
REMARK    4  A    between atoms: C13_18  and  C27_39 
REMARK    5  A    between atoms: C14_19  and  O6_38 
REMARK    6  A    between atoms: C15_20  and  N3_23 
REMARK    7  A    between atoms: C16_21  and  O3_22 
REMARK    8  A    between atoms: N3_23  and  N4_24 
REMARK    9  A    between atoms: C20_28  and  S2_35 
REMARK   10  A    between atoms: C27_39  and  O7_40 
ROOT
ATOM      1  C11 <0> d         148.632 105.144  21.787  0.00  0.00     0.115 A 
ATOM      2  C12 <0> d         147.357 104.643  21.493  0.00  0.00    -0.040 A 
ATOM      3  C13 <0> d         146.428 105.435  20.856  0.00  0.00     0.003 A 
ATOM      4  C14 <0> d         146.744 106.738  20.495  0.00  0.00     0.107 A 
ATOM      5  C15 <0> d         148.016 107.261  20.785  0.00  0.00     0.148 A 
ATOM      6  C16 <0> d         148.965 106.458  21.429  0.00  0.00     0.130 A 
ATOM      7  H7  <0> d         147.101 103.631  21.769  0.00  0.00     0.088 H 
ENDROOT
BRANCH   1   8
ATOM      8  N2  <0> d         149.546 104.355  22.418  0.00  0.00    -0.147 NA
BRANCH   8   9
ATOM      9  N1  <0> d         150.681 104.106  21.855  0.00  0.00    -0.149 NA
ATOM     10  C7  <0> d         151.839 104.495  22.457  0.00  0.00     0.090 A 
ATOM     11  C5  <0> d         153.133 104.221  21.833  0.00  0.00     0.006 A 
ATOM     12  C8  <0> d         151.817 105.166  23.675  0.00  0.00    -0.051 A 
ATOM     13  C4  <0> d         154.313 104.642  22.494  0.00  0.00     0.001 A 
ATOM     14  C6  <0> d         153.226 103.556  20.605  0.00  0.00    -0.070 A 
ATOM     15  C3  <0> d         155.561 104.383  21.900  0.00  0.00    -0.071 A 
ATOM     16  C10 <0> d         154.214 105.311  23.725  0.00  0.00     0.091 A 
ATOM     17  C2  <0> d         155.616 103.734  20.706  0.00  0.00    -0.082 A 
ATOM     18  H3  <0> d         156.471 104.697  22.390  0.00  0.00     0.084 H 
ATOM     19  C1  <0> d         154.453 103.321  20.059  0.00  0.00    -0.082 A 
ATOM     20  H2  <0> d         156.576 103.536  20.251  0.00  0.00     0.083 H 
ATOM     21  H1  <0> d         154.525 102.808  19.110  0.00  0.00     0.083 H 
ATOM     22  C9  <0> d         152.999 105.557  24.287  0.00  0.00    -0.056 A 
ATOM     23  H6  <0> d         152.954 106.074  25.234  0.00  0.00     0.086 H 
ATOM     24  H4  <0> d         152.333 103.231  20.094  0.00  0.00     0.084 H 
ATOM     25  H5  <0> d         150.871 105.382  24.150  0.00  0.00     0.087 H 
BRANCH  16  26
ATOM     26  S1  <0> d         155.680 105.838  24.551  0.00  0.00     0.138 S 
ATOM     27  O1  <0> d         156.257 104.677  25.131  0.00  0.00    -0.591 OA
ATOM     28  O2  <0> d         156.386 106.664  23.636  0.00  0.00    -0.591 OA
ATOM     29  O8  <0> d         155.249 106.733  25.703  0.00  0.00    -0.591 OA
ENDBRANCH  16  26
ENDBRANCH   8   9
ENDBRANCH   1   8
BRANCH   6  30
ATOM     30  O3  <0> d         150.197 106.949  21.710  0.00  0.00    -0.356 OA
ATOM     31  H8  <0> d         150.920 106.339  21.509  0.00  0.00     0.218 HD
ENDBRANCH   6  30
BRANCH   5  32
ATOM     32  N3  <0> d         148.325 108.541  20.438  0.00  0.00    -0.144 NA
BRANCH  32  33
ATOM     33  N4  <0> d         147.435 109.469  20.535  0.00  0.00    -0.149 NA
ATOM     34  C17 <0> d         147.377 110.459  19.601  0.00  0.00     0.090 A 
ATOM     35  C22 <0> d         146.375 111.519  19.696  0.00  0.00     0.006 A 
ATOM     36  C18 <0> d         148.275 110.487  18.539  0.00  0.00    -0.051 A 
ATOM     37  C21 <0> d         146.349 112.529  18.703  0.00  0.00     0.001 A 
ATOM     38  C23 <0> d         145.445 111.555  20.742  0.00  0.00    -0.070 A 
ATOM     39  C20 <0> d         147.285 112.490  17.656  0.00  0.00     0.091 A 
ATOM     40  C26 <0> d         145.389 113.551  18.789  0.00  0.00    -0.071 A 
ATOM     41  C19 <0> d         148.211 111.494  17.587  0.00  0.00    -0.056 A 
ATOM     42  H10 <0> d         148.917 111.490  16.770  0.00  0.00     0.086 H 
ATOM     43  C25 <0> d         144.500 113.555  19.819  0.00  0.00    -0.082 A 
ATOM     44  H14 <0> d         145.357 114.330  18.041  0.00  0.00     0.084 H 
ATOM     45  C24 <0> d         144.527 112.560  20.794  0.00  0.00    -0.082 A 
ATOM     46  H13 <0> d         143.762 114.342  19.883  0.00  0.00     0.083 H 
ATOM     47  H12 <0> d         143.809 112.587  21.601  0.00  0.00     0.083 H 
ATOM     48  H11 <0> d         145.456 110.789  21.505  0.00  0.00     0.084 H 
ATOM     49  H9  <0> d         149.026 109.716  18.453  0.00  0.00     0.087 H 
BRANCH  39  50
ATOM     50  S2  <0> d         147.259 113.744  16.417  0.00  0.00     0.138 S 
ATOM     51  O4  <0> d         148.505 113.670  15.738  0.00  0.00    -0.591 OA
ATOM     52  O5  <0> d         146.015 113.621  15.742  0.00  0.00    -0.591 OA
ATOM     53  O9  <0> d         147.234 115.086  17.136  0.00  0.00    -0.591 OA
ENDBRANCH  39  50
ENDBRANCH  32  33
ENDBRANCH   5  32
BRANCH   3  54
ATOM     54  C27 <0> d         145.060 104.884  20.545  0.00  0.00     0.043 C 
ATOM     55  H16 <0> d         144.966 104.730  19.471  0.00  0.00     0.081 H 
ATOM     56  H17 <0> d         144.925 103.934  21.062  0.00  0.00     0.081 H 
BRANCH  54  57
ATOM     57  O7  <0> d         144.064 105.811  20.982  0.00  0.00    -0.396 OA
ATOM     58  H18 <0> d         144.390 106.473  21.608  0.00  0.00     0.209 HD
ENDBRANCH  54  57
ENDBRANCH   3  54
BRANCH   4  59
ATOM     59  O6  <0> d         145.822 107.510  19.868  0.00  0.00    -0.358 OA
ATOM     60  H15 <0> d         145.987 108.460  19.943  0.00  0.00     0.217 HD
ENDBRANCH   4  59
TORSDOF 10
ENDMDL
MODEL 7
REMARK VINA RESULT:     -10.3      1.988      3.308
REMARK  10 active torsions:
REMARK  status: ('A' for Active; 'I' for Inactive)
REMARK    1  A    between atoms: C10_10  and  S1_11 
REMARK    2  A    between atoms: N1_14  and  N2_15 
REMARK    3  A    between atoms: N2_15  and  C11_16 
REMARK    4  A    between atoms: C13_18  and  C27_39 
REMARK    5  A    between atoms: C14_19  and  O6_38 
REMARK    6  A    between atoms: C15_20  and  N3_23 
REMARK    7  A    between atoms: C16_21  and  O3_22 
REMARK    8  A    between atoms: N3_23  and  N4_24 
REMARK    9  A    between atoms: C20_28  and  S2_35 
REMARK   10  A    between atoms: C27_39  and  O7_40 
ROOT
ATOM      1  C11 <0> d         148.954 106.616  22.410  0.00  0.00     0.115 A 
ATOM      2  C12 <0> d         148.761 107.451  23.517  0.00  0.00    -0.040 A 
ATOM      3  C13 <0> d         148.046 108.622  23.389  0.00  0.00     0.003 A 
ATOM      4  C14 <0> d         147.508 108.987  22.162  0.00  0.00     0.107 A 
ATOM      5  C15 <0> d         147.695 108.165  21.038  0.00  0.00     0.148 A 
ATOM      6  C16 <0> d         148.417 106.971  21.165  0.00  0.00     0.130 A 
ATOM      7  H7  <0> d         149.175 107.177  24.476  0.00  0.00     0.088 H 
ENDROOT
BRANCH   1   8
ATOM      8  N2  <0> d         149.662 105.459  22.543  0.00  0.00    -0.147 NA
BRANCH   8   9
ATOM      9  N1  <0> d         150.834 105.479  23.081  0.00  0.00    -0.149 NA
ATOM     10  C7  <0> d         151.924 105.107  22.353  0.00  0.00     0.090 A 
ATOM     11  C5  <0> d         153.260 105.123  22.948  0.00  0.00     0.006 A 
ATOM     12  C8  <0> d         151.789 104.696  21.032  0.00  0.00    -0.051 A 
ATOM     13  C4  <0> d         154.365 104.727  22.155  0.00  0.00     0.001 A 
ATOM     14  C6  <0> d         153.465 105.519  24.274  0.00  0.00    -0.070 A 
ATOM     15  C3  <0> d         155.653 104.741  22.719  0.00  0.00    -0.071 A 
ATOM     16  C10 <0> d         154.154 104.329  20.824  0.00  0.00     0.091 A 
ATOM     17  C2  <0> d         155.817 105.132  24.012  0.00  0.00    -0.082 A 
ATOM     18  H3  <0> d         156.507 104.443  22.129  0.00  0.00     0.084 H 
ATOM     19  C1  <0> d         154.728 105.520  24.789  0.00  0.00    -0.082 A 
ATOM     20  H2  <0> d         156.808 105.141  24.443  0.00  0.00     0.083 H 
ATOM     21  H1  <0> d         154.886 105.825  25.813  0.00  0.00     0.083 H 
ATOM     22  C9  <0> d         152.901 104.320  20.292  0.00  0.00    -0.056 A 
ATOM     23  H6  <0> d         152.770 104.008  19.267  0.00  0.00     0.086 H 
ATOM     24  H4  <0> d         152.629 105.822  24.886  0.00  0.00     0.084 H 
ATOM     25  H5  <0> d         150.810 104.672  20.575  0.00  0.00     0.087 H 
BRANCH  16  26
ATOM     26  S1  <0> d         155.526 103.835  19.834  0.00  0.00     0.138 S 
ATOM     27  O1  <0> d         156.381 104.966  19.735  0.00  0.00    -0.591 OA
ATOM     28  O2  <0> d         155.970 102.588  20.349  0.00  0.00    -0.591 OA
ATOM     29  O8  <0> d         154.996 103.565  18.434  0.00  0.00    -0.591 OA
ENDBRANCH  16  26
ENDBRANCH   8   9
ENDBRANCH   1   8
BRANCH   6  30
ATOM     30  O3  <0> d         148.599 106.167  20.089  0.00  0.00    -0.356 OA
ATOM     31  H8  <0> d         148.947 106.623  19.310  0.00  0.00     0.218 HD
ENDBRANCH   6  30
BRANCH   5  32
ATOM     32  N3  <0> d         147.173 108.524  19.833  0.00  0.00    -0.144 NA
BRANCH  32  33
ATOM     33  N4  <0> d         147.923 109.082  18.945  0.00  0.00    -0.149 NA
ATOM     34  C17 <0> d         147.577 110.293  18.423  0.00  0.00     0.090 A 
ATOM     35  C22 <0> d         148.417 110.939  17.416  0.00  0.00     0.006 A 
ATOM     36  C18 <0> d         146.415 110.937  18.833  0.00  0.00    -0.051 A 
ATOM     37  C21 <0> d         148.021 112.198  16.900  0.00  0.00     0.001 A 
ATOM     38  C23 <0> d         149.597 110.344  16.955  0.00  0.00    -0.070 A 
ATOM     39  C20 <0> d         146.835 112.791  17.364  0.00  0.00     0.091 A 
ATOM     40  C26 <0> d         148.822 112.824  15.931  0.00  0.00    -0.071 A 
ATOM     41  C19 <0> d         146.068 112.171  18.303  0.00  0.00    -0.056 A 
ATOM     42  H10 <0> d         145.162 112.652  18.640  0.00  0.00     0.086 H 
ATOM     43  C25 <0> d         149.963 112.217  15.505  0.00  0.00    -0.082 A 
ATOM     44  H14 <0> d         148.534 113.783  15.526  0.00  0.00     0.084 H 
ATOM     45  C24 <0> d         150.350 110.980  16.015  0.00  0.00    -0.082 A 
ATOM     46  H13 <0> d         150.578 112.701  14.760  0.00  0.00     0.083 H 
ATOM     47  H12 <0> d         151.261 110.519  15.660  0.00  0.00     0.083 H 
ATOM     48  H11 <0> d         149.908 109.383  17.342  0.00  0.00     0.084 H 
ATOM     49  H9  <0> d         145.779 110.474  19.572  0.00  0.00     0.087 H 
BRANCH  39  50
ATOM     50  S2  <0> d         146.337 114.357  16.726  0.00  0.00     0.138 S 
ATOM     51  O4  <0> d         147.255 115.314  17.235  0.00  0.00    -0.591 OA
ATOM     52  O5  <0> d         146.118 114.176  15.334  0.00  0.00    -0.591 OA
ATOM     53  O9  <0> d         144.983 114.683  17.342  0.00  0.00    -0.591 OA
ENDBRANCH  39  50
ENDBRANCH  32  33
ENDBRANCH   5  32
BRANCH   3  54
ATOM     54  C27 <0> d         147.845 109.513  24.588  0.00  0.00     0.043 C 
ATOM     55  H16 <0> d         146.796 109.499  24.878  0.00  0.00     0.081 H 
ATOM     56  H17 <0> d         148.456 109.152  25.415  0.00  0.00     0.081 H 
BRANCH  54  57
ATOM     57  O7  <0> d         148.230 110.848  24.258  0.00  0.00    -0.396 OA
ATOM     58  H18 <0> d         147.670 111.266  23.589  0.00  0.00     0.209 HD
ENDBRANCH  54  57
ENDBRANCH   3  54
BRANCH   4  59
ATOM     59  O6  <0> d         146.806 110.142  22.047  0.00  0.00    -0.358 OA
ATOM     60  H15 <0> d         147.315 110.935  22.265  0.00  0.00     0.217 HD
ENDBRANCH   4  59
TORSDOF 10
ENDMDL
MODEL 8
REMARK VINA RESULT:     -10.3      3.058     10.482
REMARK  10 active torsions:
REMARK  status: ('A' for Active; 'I' for Inactive)
REMARK    1  A    between atoms: C10_10  and  S1_11 
REMARK    2  A    between atoms: N1_14  and  N2_15 
REMARK    3  A    between atoms: N2_15  and  C11_16 
REMARK    4  A    between atoms: C13_18  and  C27_39 
REMARK    5  A    between atoms: C14_19  and  O6_38 
REMARK    6  A    between atoms: C15_20  and  N3_23 
REMARK    7  A    between atoms: C16_21  and  O3_22 
REMARK    8  A    between atoms: N3_23  and  N4_24 
REMARK    9  A    between atoms: C20_28  and  S2_35 
REMARK   10  A    between atoms: C27_39  and  O7_40 
ROOT
ATOM      1  C11 <0> d         150.226 109.254  16.846  0.00  0.00     0.115 A 
ATOM      2  C12 <0> d         150.898 110.482  16.782  0.00  0.00    -0.040 A 
ATOM      3  C13 <0> d         152.211 110.578  17.187  0.00  0.00     0.003 A 
ATOM      4  C14 <0> d         152.885 109.461  17.661  0.00  0.00     0.107 A 
ATOM      5  C15 <0> d         152.227 108.221  17.738  0.00  0.00     0.148 A 
ATOM      6  C16 <0> d         150.894 108.117  17.323  0.00  0.00     0.130 A 
ATOM      7  H7  <0> d         150.383 111.357  16.415  0.00  0.00     0.088 H 
ENDROOT
BRANCH   1   8
ATOM      8  N2  <0> d         148.928 109.165  16.444  0.00  0.00    -0.147 NA
BRANCH   8   9
ATOM      9  N1  <0> d         147.996 108.963  17.314  0.00  0.00    -0.149 NA
ATOM     10  C7  <0> d         147.168 109.983  17.675  0.00  0.00     0.090 A 
ATOM     11  C5  <0> d         146.108 109.771  18.659  0.00  0.00     0.006 A 
ATOM     12  C8  <0> d         147.318 111.249  17.120  0.00  0.00    -0.051 A 
ATOM     13  C4  <0> d         145.270 110.860  19.005  0.00  0.00     0.001 A 
ATOM     14  C6  <0> d         145.907 108.524  19.261  0.00  0.00    -0.070 A 
ATOM     15  C3  <0> d         144.248 110.664  19.950  0.00  0.00    -0.071 A 
ATOM     16  C10 <0> d         145.475 112.111  18.400  0.00  0.00     0.091 A 
ATOM     17  C2  <0> d         144.080 109.438  20.516  0.00  0.00    -0.082 A 
ATOM     18  H3  <0> d         143.599 111.483  20.226  0.00  0.00     0.084 H 
ATOM     19  C1  <0> d         144.906 108.370  20.174  0.00  0.00    -0.082 A 
ATOM     20  H2  <0> d         143.294 109.291  21.243  0.00  0.00     0.083 H 
ATOM     21  H1  <0> d         144.752 107.407  20.639  0.00  0.00     0.083 H 
ATOM     22  C9  <0> d         146.470 112.285  17.486  0.00  0.00    -0.056 A 
ATOM     23  H6  <0> d         146.605 113.258  17.039  0.00  0.00     0.086 H 
ATOM     24  H4  <0> d         146.541 107.689  19.004  0.00  0.00     0.084 H 
ATOM     25  H5  <0> d         148.098 111.428  16.394  0.00  0.00     0.087 H 
BRANCH  16  26
ATOM     26  S1  <0> d         144.436 113.468  18.827  0.00  0.00     0.138 S 
ATOM     27  O1  <0> d         144.587 113.669  20.226  0.00  0.00    -0.591 OA
ATOM     28  O2  <0> d         144.695 114.492  17.878  0.00  0.00    -0.591 OA
ATOM     29  O8  <0> d         142.998 113.021  18.604  0.00  0.00    -0.591 OA
ENDBRANCH  16  26
ENDBRANCH   8   9
ENDBRANCH   1   8
BRANCH   6  30
ATOM     30  O3  <0> d         150.250 106.926  17.387  0.00  0.00    -0.356 OA
ATOM     31  H8  <0> d         149.977 106.578  16.527  0.00  0.00     0.218 HD
ENDBRANCH   6  30
BRANCH   5  32
ATOM     32  N3  <0> d         152.885 107.126  18.209  0.00  0.00    -0.144 NA
BRANCH  32  33
ATOM     33  N4  <0> d         152.463 106.527  19.270  0.00  0.00    -0.149 NA
ATOM     34  C17 <0> d         153.187 106.593  20.423  0.00  0.00     0.090 A 
ATOM     35  C22 <0> d         152.723 105.919  21.635  0.00  0.00     0.006 A 
ATOM     36  C18 <0> d         154.385 107.297  20.471  0.00  0.00    -0.051 A 
ATOM     37  C21 <0> d         153.505 106.013  22.813  0.00  0.00     0.001 A 
ATOM     38  C23 <0> d         151.529 105.188  21.655  0.00  0.00    -0.070 A 
ATOM     39  C20 <0> d         154.703 106.747  22.788  0.00  0.00     0.091 A 
ATOM     40  C26 <0> d         153.066 105.367  23.981  0.00  0.00    -0.071 A 
ATOM     41  C19 <0> d         155.116 107.366  21.648  0.00  0.00    -0.056 A 
ATOM     42  H10 <0> d         156.041 107.923  21.659  0.00  0.00     0.086 H 
ATOM     43  C25 <0> d         151.900 104.666  23.965  0.00  0.00    -0.082 A 
ATOM     44  H14 <0> d         153.651 105.428  24.886  0.00  0.00     0.084 H 
ATOM     45  C24 <0> d         151.133 104.575  22.806  0.00  0.00    -0.082 A 
ATOM     46  H13 <0> d         151.564 104.170  24.864  0.00  0.00     0.083 H 
ATOM     47  H12 <0> d         150.211 104.011  22.820  0.00  0.00     0.083 H 
ATOM     48  H11 <0> d         150.925 105.110  20.762  0.00  0.00     0.084 H 
ATOM     49  H9  <0> d         154.747 107.797  19.586  0.00  0.00     0.087 H 
BRANCH  39  50
ATOM     50  S2  <0> d         155.680 106.868  24.249  0.00  0.00     0.138 S 
ATOM     51  O4  <0> d         154.900 107.575  25.202  0.00  0.00    -0.591 OA
ATOM     52  O5  <0> d         156.196 105.568  24.501  0.00  0.00    -0.591 OA
ATOM     53  O9  <0> d         156.874 107.754  23.920  0.00  0.00    -0.591 OA
ENDBRANCH  39  50
ENDBRANCH  32  33
ENDBRANCH   5  32
BRANCH   3  54
ATOM     54  C27 <0> d         152.922 111.905  17.113  0.00  0.00     0.043 C 
ATOM     55  H16 <0> d         152.279 112.634  16.622  0.00  0.00     0.081 H 
ATOM     56  H17 <0> d         153.159 112.247  18.120  0.00  0.00     0.081 H 
BRANCH  54  57
ATOM     57  O7  <0> d         154.130 111.755  16.364  0.00  0.00    -0.396 OA
ATOM     58  H18 <0> d         154.497 112.588  16.037  0.00  0.00     0.209 HD
ENDBRANCH  54  57
ENDBRANCH   3  54
BRANCH   4  59
ATOM     59  O6  <0> d         154.178 109.567  18.057  0.00  0.00    -0.358 OA
ATOM     60  H15 <0> d         154.381 110.391  18.520  0.00  0.00     0.217 HD
ENDBRANCH   4  59
TORSDOF 10
ENDMDL
MODEL 9
REMARK VINA RESULT:     -10.2      3.113     10.673
REMARK  10 active torsions:
REMARK  status: ('A' for Active; 'I' for Inactive)
REMARK    1  A    between atoms: C10_10  and  S1_11 
REMARK    2  A    between atoms: N1_14  and  N2_15 
REMARK    3  A    between atoms: N2_15  and  C11_16 
REMARK    4  A    between atoms: C13_18  and  C27_39 
REMARK    5  A    between atoms: C14_19  and  O6_38 
REMARK    6  A    between atoms: C15_20  and  N3_23 
REMARK    7  A    between atoms: C16_21  and  O3_22 
REMARK    8  A    between atoms: N3_23  and  N4_24 
REMARK    9  A    between atoms: C20_28  and  S2_35 
REMARK   10  A    between atoms: C27_39  and  O7_40 
ROOT
ATOM      1  C11 <0> d         149.541 106.954  17.773  0.00  0.00     0.115 A 
ATOM      2  C12 <0> d         149.948 106.756  16.447  0.00  0.00    -0.040 A 
ATOM      3  C13 <0> d         150.581 105.589  16.080  0.00  0.00     0.003 A 
ATOM      4  C14 <0> d         150.822 104.594  17.018  0.00  0.00     0.107 A 
ATOM      5  C15 <0> d         150.425 104.775  18.354  0.00  0.00     0.148 A 
ATOM      6  C16 <0> d         149.777 105.958  18.731  0.00  0.00     0.130 A 
ATOM      7  H7  <0> d         149.766 107.524  15.710  0.00  0.00     0.088 H 
ENDROOT
BRANCH   1   8
ATOM      8  N2  <0> d         148.916 108.110  18.130  0.00  0.00    -0.147 NA
BRANCH   8   9
ATOM      9  N1  <0> d         147.782 108.067  18.745  0.00  0.00    -0.149 NA
ATOM     10  C7  <0> d         147.036 109.198  18.877  0.00  0.00     0.090 A 
ATOM     11  C5  <0> d         145.750 109.167  19.572  0.00  0.00     0.006 A 
ATOM     12  C8  <0> d         147.483 110.409  18.360  0.00  0.00    -0.051 A 
ATOM     13  C4  <0> d         145.005 110.367  19.687  0.00  0.00     0.001 A 
ATOM     14  C6  <0> d         145.244 107.984  20.123  0.00  0.00    -0.070 A 
ATOM     15  C3  <0> d         143.768 110.345  20.353  0.00  0.00    -0.071 A 
ATOM     16  C10 <0> d         145.517 111.553  19.134  0.00  0.00     0.091 A 
ATOM     17  C2  <0> d         143.306 109.177  20.877  0.00  0.00    -0.082 A 
ATOM     18  H3  <0> d         143.187 111.251  20.450  0.00  0.00     0.084 H 
ATOM     19  C1  <0> d         144.041 107.999  20.763  0.00  0.00    -0.082 A 
ATOM     20  H2  <0> d         142.355 109.163  21.389  0.00  0.00     0.083 H 
ATOM     21  H1  <0> d         143.651 107.085  21.188  0.00  0.00     0.083 H 
ATOM     22  C9  <0> d         146.718 111.559  18.493  0.00  0.00    -0.056 A 
ATOM     23  H6  <0> d         147.086 112.486  18.079  0.00  0.00     0.086 H 
ATOM     24  H4  <0> d         145.804 107.065  20.041  0.00  0.00     0.084 H 
ATOM     25  H5  <0> d         148.432 110.454  17.846  0.00  0.00     0.087 H 
BRANCH  16  26
ATOM     26  S1  <0> d         144.595 113.049  19.275  0.00  0.00     0.138 S 
ATOM     27  O1  <0> d         143.419 112.874  18.497  0.00  0.00    -0.591 OA
ATOM     28  O2  <0> d         144.553 113.372  20.657  0.00  0.00    -0.591 OA
ATOM     29  O8  <0> d         145.407 114.143  18.597  0.00  0.00    -0.591 OA
ENDBRANCH  16  26
ENDBRANCH   8   9
ENDBRANCH   1   8
BRANCH   6  30
ATOM     30  O3  <0> d         149.385 106.142  20.016  0.00  0.00    -0.356 OA
ATOM     31  H8  <0> d         149.204 107.064  20.245  0.00  0.00     0.218 HD
ENDBRANCH   6  30
BRANCH   5  32
ATOM     32  N3  <0> d         150.666 103.803  19.277  0.00  0.00    -0.144 NA
BRANCH  32  33
ATOM     33  N4  <0> d         151.232 104.101  20.396  0.00  0.00    -0.149 NA
ATOM     34  C17 <0> d         152.589 104.213  20.466  0.00  0.00     0.090 A 
ATOM     35  C22 <0> d         153.247 104.550  21.727  0.00  0.00     0.006 A 
ATOM     36  C18 <0> d         153.377 104.002  19.340  0.00  0.00    -0.051 A 
ATOM     37  C21 <0> d         154.659 104.657  21.755  0.00  0.00     0.001 A 
ATOM     38  C23 <0> d         152.513 104.770  22.899  0.00  0.00    -0.070 A 
ATOM     39  C20 <0> d         155.391 104.434  20.577  0.00  0.00     0.091 A 
ATOM     40  C26 <0> d         155.298 104.979  22.964  0.00  0.00    -0.071 A 
ATOM     41  C19 <0> d         154.757 104.121  19.413  0.00  0.00    -0.056 A 
ATOM     42  H10 <0> d         155.347 103.956  18.523  0.00  0.00     0.086 H 
ATOM     43  C25 <0> d         154.555 105.186  24.085  0.00  0.00    -0.082 A 
ATOM     44  H14 <0> d         156.374 105.063  23.003  0.00  0.00     0.084 H 
ATOM     45  C24 <0> d         153.166 105.082  24.054  0.00  0.00    -0.082 A 
ATOM     46  H13 <0> d         155.048 105.435  25.013  0.00  0.00     0.083 H 
ATOM     47  H12 <0> d         152.599 105.251  24.958  0.00  0.00     0.083 H 
ATOM     48  H11 <0> d         151.435 104.690  22.888  0.00  0.00     0.084 H 
ATOM     49  H9  <0> d         152.911 103.747  18.400  0.00  0.00     0.087 H 
BRANCH  39  50
ATOM     50  S2  <0> d         157.148 104.565  20.605  0.00  0.00     0.138 S 
ATOM     51  O4  <0> d         157.450 105.926  20.884  0.00  0.00    -0.591 OA
ATOM     52  O5  <0> d         157.621 103.498  21.416  0.00  0.00    -0.591 OA
ATOM     53  O9  <0> d         157.643 104.292  19.192  0.00  0.00    -0.591 OA
ENDBRANCH  39  50
ENDBRANCH  32  33
ENDBRANCH   5  32
BRANCH   3  54
ATOM     54  C27 <0> d         151.015 105.389  14.651  0.00  0.00     0.043 C 
ATOM     55  H16 <0> d         150.513 104.514  14.239  0.00  0.00     0.081 H 
ATOM     56  H17 <0> d         150.751 106.269  14.065  0.00  0.00     0.081 H 
BRANCH  54  57
ATOM     57  O7  <0> d         152.429 105.192  14.606  0.00  0.00    -0.396 OA
ATOM     58  H18 <0> d         152.913 105.910  14.175  0.00  0.00     0.209 HD
ENDBRANCH  54  57
ENDBRANCH   3  54
BRANCH   4  59
ATOM     59  O6  <0> d         151.446 103.449  16.646  0.00  0.00    -0.358 OA
ATOM     60  H15 <0> d         151.954 103.526  15.827  0.00  0.00     0.217 HD
ENDBRANCH   4  59
TORSDOF 10
ENDMDL
