
 OpenBabel03192116033D

 48 49  0  0  1  0  0  0  0  0999 V2000
   20.7320   34.0740   88.4490 C   0  0  2  0  0  0  0  0  0  0  0  0
   15.3730   33.8680   90.6010 C   0  0  0  0  0  0  0  0  0  0  0  0
   16.7720   33.9210   90.0420 C   0  0  0  0  0  0  0  0  0  0  0  0
   17.4240   35.1340   89.9260 C   0  0  0  0  0  0  0  0  0  0  0  0
   18.7070   35.1830   89.4140 C   0  0  0  0  0  0  0  0  0  0  0  0
   19.4170   36.5070   89.2880 C   0  0  0  0  0  0  0  0  0  0  0  0
   19.3360   34.0190   89.0130 C   0  0  0  0  0  0  0  0  0  0  0  0
   18.6860   32.8050   89.1340 C   0  0  0  0  0  0  0  0  0  0  0  0
   19.3730   31.5360   88.7020 C   0  0  0  0  0  0  0  0  0  0  0  0
   17.4020   32.7560   89.6460 C   0  0  0  0  0  0  0  0  0  0  0  0
   21.6390   34.8510   89.4060 C   0  0  0  0  0  0  0  0  0  0  0  0
   23.0130   34.8660   88.8770 C   0  0  0  0  0  0  0  0  0  0  0  0
   24.0720   34.8770   88.4690 N   0  0  0  0  0  0  0  0  0  0  0  0
   21.6290   34.2020   90.7270 C   0  0  0  0  0  0  0  0  0  0  0  0
   21.6210   33.7010   91.7470 N   0  0  0  0  0  0  0  0  0  0  0  0
   20.7060   34.7750   87.0890 C   0  0  0  0  0  0  0  0  0  0  0  0
   20.7210   33.7410   85.9920 C   0  0  0  0  0  0  0  0  0  0  0  0
   21.8150   33.5130   85.3270 N   0  0  0  0  0  0  0  0  0  0  0  0
   23.0060   34.1510   85.7000 N   0  0  0  0  0  0  0  0  0  0  0  0
   23.7840   34.7260   84.7610 C   0  0  0  0  0  0  0  0  0  0  0  0
   23.4170   34.6850   83.4650 N   0  0  0  0  0  0  0  0  0  0  0  0
   24.8180   35.2790   85.0830 O   0  0  0  0  0  0  0  0  0  0  0  0
   19.5010   32.9920   85.6740 C   0  0  0  0  0  0  0  0  0  0  0  0
   18.1830   33.4130   85.7110 C   0  0  0  0  0  0  0  0  0  0  0  0
   17.2000   32.5160   85.3630 C   0  0  0  0  0  0  0  0  0  0  0  0
   17.5490   31.2550   84.9960 C   0  0  0  0  0  0  0  0  0  0  0  0
   19.3280   31.3000   85.1280 S   0  0  0  0  0  0  0  0  0  0  0  0
   21.1077   33.0792   88.3303 H   0  0  0  0  0  0  0  0  0  0  0  0
   15.0328   32.8536   90.6151 H   0  0  0  0  0  0  0  0  0  0  0  0
   14.7213   34.4543   89.9874 H   0  0  0  0  0  0  0  0  0  0  0  0
   15.3719   34.2585   91.5972 H   0  0  0  0  0  0  0  0  0  0  0  0
   16.9529   36.0033   90.2217 H   0  0  0  0  0  0  0  0  0  0  0  0
   18.7797   37.2889   89.6451 H   0  0  0  0  0  0  0  0  0  0  0  0
   19.6594   36.6854   88.2612 H   0  0  0  0  0  0  0  0  0  0  0  0
   20.3157   36.4864   89.8683 H   0  0  0  0  0  0  0  0  0  0  0  0
   20.3514   31.7671   88.3355 H   0  0  0  0  0  0  0  0  0  0  0  0
   18.8030   31.0680   87.9267 H   0  0  0  0  0  0  0  0  0  0  0  0
   19.4526   30.8715   89.5369 H   0  0  0  0  0  0  0  0  0  0  0  0
   16.9147   31.8504   89.7323 H   0  0  0  0  0  0  0  0  0  0  0  0
   21.2818   35.8553   89.4992 H   0  0  0  0  0  0  0  0  0  0  0  0
   21.5650   35.4062   86.9963 H   0  0  0  0  0  0  0  0  0  0  0  0
   19.8186   35.3675   87.0094 H   0  0  0  0  0  0  0  0  0  0  0  0
   23.2742   34.1792   86.6469 H   0  0  0  0  0  0  0  0  0  0  0  0
   22.5798   34.2373   83.2044 H   0  0  0  0  0  0  0  0  0  0  0  0
   23.9860   35.1028   82.7788 H   0  0  0  0  0  0  0  0  0  0  0  0
   17.9436   34.3765   85.9928 H   0  0  0  0  0  0  0  0  0  0  0  0
   16.2074   32.7978   85.3804 H   0  0  0  0  0  0  0  0  0  0  0  0
   16.9403   30.4711   84.7131 H   0  0  0  0  0  0  0  0  0  0  0  0
  1 16  1  0  0  0  0
  1  7  1  0  0  0  0
  1 11  1  0  0  0  0
  1 28  1  6  0  0  0
  2  3  1  0  0  0  0
  2 29  1  0  0  0  0
  2 30  1  0  0  0  0
  2 31  1  0  0  0  0
  3 10  2  0  0  0  0
  3  4  1  0  0  0  0
  4  5  2  0  0  0  0
  4 32  1  0  0  0  0
  5  7  1  0  0  0  0
  5  6  1  0  0  0  0
  6 33  1  0  0  0  0
  6 34  1  0  0  0  0
  6 35  1  0  0  0  0
  7  8  2  0  0  0  0
  8  9  1  0  0  0  0
  8 10  1  0  0  0  0
  9 36  1  0  0  0  0
  9 37  1  0  0  0  0
  9 38  1  0  0  0  0
 10 39  1  0  0  0  0
 11 12  1  0  0  0  0
 11 14  1  0  0  0  0
 11 40  1  0  0  0  0
 12 13  3  0  0  0  0
 14 15  3  0  0  0  0
 16 17  1  0  0  0  0
 16 41  1  0  0  0  0
 16 42  1  0  0  0  0
 17 18  2  0  0  0  0
 17 23  1  0  0  0  0
 18 19  1  0  0  0  0
 19 20  1  0  0  0  0
 19 43  1  0  0  0  0
 20 21  1  0  0  0  0
 20 22  2  0  0  0  0
 21 44  1  0  0  0  0
 21 45  1  0  0  0  0
 23 27  1  0  0  0  0
 23 24  2  0  0  0  0
 24 25  1  0  0  0  0
 24 46  1  0  0  0  0
 25 26  2  0  0  0  0
 25 47  1  0  0  0  0
 26 27  1  0  0  0  0
 26 48  1  0  0  0  0
M  END
$$$$
