
 OpenBabel03192116033D

 47 50  0  0  0  0  0  0  0  0999 V2000
   17.8580   34.9600   89.6610 C   0  0  0  0  0  0  0  0  0  0  0  0
   17.0470   34.2480   90.4690 N   0  0  0  0  0  0  0  0  0  0  0  0
   18.2890   36.0370   90.0270 O   0  0  0  0  0  0  0  0  0  0  0  0
   17.5940   33.3610   86.2760 C   0  0  0  0  0  0  0  0  0  0  0  0
   18.9050   33.4400   85.8330 C   0  0  0  0  0  0  0  0  0  0  0  0
   19.8780   34.0110   86.6290 C   0  0  0  0  0  0  0  0  0  0  0  0
   19.5480   34.5120   87.8810 C   0  0  0  0  0  0  0  0  0  0  0  0
   18.2220   34.4340   88.3330 C   0  0  0  0  0  0  0  0  0  0  0  0
   17.2490   33.8480   87.5190 C   0  0  0  0  0  0  0  0  0  0  0  0
   20.5270   35.0880   88.6850 N   0  0  0  0  0  0  0  0  0  0  0  0
   21.3590   34.3040   89.3990 C   0  0  0  0  0  0  0  0  0  0  0  0
   21.3190   33.0940   89.2670 O   0  0  0  0  0  0  0  0  0  0  0  0
   22.3140   34.9080   90.3340 C   0  0  0  0  0  0  0  0  0  0  0  0
   23.4660   35.5580   89.9950 C   0  0  0  0  0  0  0  0  0  0  0  0
   24.0650   35.9700   91.1960 C   0  0  0  0  0  0  0  0  0  0  0  0
   23.2620   35.5570   92.2020 C   0  0  0  0  0  0  0  0  0  0  0  0
   22.2050   34.9220   91.6780 O   0  0  0  0  0  0  0  0  0  0  0  0
   16.6850   34.7720   91.7890 C   0  0  0  0  0  0  0  0  0  0  0  0
   17.4350   33.9920   92.8700 C   0  0  0  0  0  0  0  0  0  0  0  0
   16.5340   33.7910   94.0610 C   0  0  0  0  0  0  0  0  0  0  0  0
   15.6330   32.8100   94.2250 C   0  0  0  0  0  0  0  0  0  0  0  0
   15.0030   32.9510   95.4310 N   0  0  0  0  0  0  0  0  0  0  0  0
   15.4950   34.0560   96.0910 C   0  0  0  0  0  0  0  0  0  0  0  0
   15.2120   34.6400   97.3200 C   0  0  0  0  0  0  0  0  0  0  0  0
   15.8900   35.7720   97.7160 C   0  0  0  0  0  0  0  0  0  0  0  0
   16.8590   36.3400   96.8980 C   0  0  0  0  0  0  0  0  0  0  0  0
   17.7000   37.7660   97.4180 Cl  0  0  0  0  0  0  0  0  0  0  0  0
   17.1560   35.7770   95.6770 C   0  0  0  0  0  0  0  0  0  0  0  0
   16.4760   34.6300   95.2620 C   0  0  0  0  0  0  0  0  0  0  0  0
   16.6981   33.3765   90.1725 H   0  0  0  0  0  0  0  0  0  0  0  0
   16.8728   32.9357   85.6727 H   0  0  0  0  0  0  0  0  0  0  0  0
   19.1553   33.0699   84.9028 H   0  0  0  0  0  0  0  0  0  0  0  0
   20.8522   34.0655   86.2927 H   0  0  0  0  0  0  0  0  0  0  0  0
   16.2732   33.7798   87.8478 H   0  0  0  0  0  0  0  0  0  0  0  0
   20.6118   36.0677   88.7322 H   0  0  0  0  0  0  0  0  0  0  0  0
   23.8264   35.7158   89.0410 H   0  0  0  0  0  0  0  0  0  0  0  0
   24.9511   36.4900   91.2926 H   0  0  0  0  0  0  0  0  0  0  0  0
   23.4348   35.7063   93.2084 H   0  0  0  0  0  0  0  0  0  0  0  0
   15.6309   34.6651   91.9384 H   0  0  0  0  0  0  0  0  0  0  0  0
   16.9501   35.8070   91.8470 H   0  0  0  0  0  0  0  0  0  0  0  0
   18.3034   34.5413   93.1684 H   0  0  0  0  0  0  0  0  0  0  0  0
   17.7310   33.0398   92.4821 H   0  0  0  0  0  0  0  0  0  0  0  0
   15.4434   32.0599   93.5420 H   0  0  0  0  0  0  0  0  0  0  0  0
   14.3021   32.3519   95.7762 H   0  0  0  0  0  0  0  0  0  0  0  0
   14.4945   34.2260   97.9355 H   0  0  0  0  0  0  0  0  0  0  0  0
   15.6761   36.2024   98.6292 H   0  0  0  0  0  0  0  0  0  0  0  0
   17.8770   36.2003   95.0720 H   0  0  0  0  0  0  0  0  0  0  0  0
  1  8  1  0  0  0  0
  1  3  2  0  0  0  0
  1  2  1  0  0  0  0
  2 18  1  0  0  0  0
  2 30  1  0  0  0  0
  4  5  2  0  0  0  0
  4  9  1  0  0  0  0
  4 31  1  0  0  0  0
  5  6  1  0  0  0  0
  5 32  1  0  0  0  0
  6  7  2  0  0  0  0
  6 33  1  0  0  0  0
  7  8  1  0  0  0  0
  7 10  1  0  0  0  0
  8  9  2  0  0  0  0
  9 34  1  0  0  0  0
 10 11  1  0  0  0  0
 10 35  1  0  0  0  0
 11 12  2  0  0  0  0
 11 13  1  0  0  0  0
 13 14  2  0  0  0  0
 13 17  1  0  0  0  0
 14 15  1  0  0  0  0
 14 36  1  0  0  0  0
 15 16  2  0  0  0  0
 15 37  1  0  0  0  0
 16 17  1  0  0  0  0
 16 38  1  0  0  0  0
 18 19  1  0  0  0  0
 18 39  1  0  0  0  0
 18 40  1  0  0  0  0
 19 20  1  0  0  0  0
 19 41  1  0  0  0  0
 19 42  1  0  0  0  0
 20 21  2  0  0  0  0
 20 29  1  0  0  0  0
 21 22  1  0  0  0  0
 21 43  1  0  0  0  0
 22 23  1  0  0  0  0
 22 44  1  0  0  0  0
 23 29  2  0  0  0  0
 23 24  1  0  0  0  0
 24 25  2  0  0  0  0
 24 45  1  0  0  0  0
 25 26  1  0  0  0  0
 25 46  1  0  0  0  0
 26 28  2  0  0  0  0
 26 27  1  0  0  0  0
 28 29  1  0  0  0  0
 28 47  1  0  0  0  0
M  END
$$$$
