
 OpenBabel03192116033D

 48 51  0  0  1  0  0  0  0  0999 V2000
   18.3430   34.3460   90.1550 N   0  0  0  0  0  0  0  0  0  0  0  0
   18.0820   32.9810   89.6960 C   0  0  2  0  0  0  0  0  0  0  0  0
   19.2940   32.4050   89.1010 N   0  0  0  0  0  0  0  0  0  0  0  0
   20.0560   33.1890   88.2420 C   0  0  0  0  0  0  0  0  0  0  0  0
   20.8210   32.6310   87.2320 C   0  0  0  0  0  0  0  0  0  0  0  0
   21.5740   33.4500   86.4130 C   0  0  0  0  0  0  0  0  0  0  0  0
   21.5690   34.8240   86.5930 C   0  0  0  0  0  0  0  0  0  0  0  0
   20.8080   35.3960   87.5920 C   0  0  0  0  0  0  0  0  0  0  0  0
   20.0410   34.5830   88.4230 C   0  0  0  0  0  0  0  0  0  0  0  0
   19.2140   35.1440   89.5050 C   0  0  0  0  0  0  0  0  0  0  0  0
   19.3130   36.3170   89.8090 O   0  0  0  0  0  0  0  0  0  0  0  0
   16.3620   35.7850   93.5290 C   0  0  0  0  0  0  0  0  0  0  0  0
   15.6830   35.6630   92.3260 C   0  0  0  0  0  0  0  0  0  0  0  0
   16.3380   35.1870   91.2080 C   0  0  0  0  0  0  0  0  0  0  0  0
   17.6780   34.8300   91.2880 C   0  0  0  0  0  0  0  0  0  0  0  0
   18.3560   34.9460   92.4940 C   0  0  0  0  0  0  0  0  0  0  0  0
   17.7000   35.4280   93.6100 C   0  0  0  0  0  0  0  0  0  0  0  0
   15.7160   36.2550   94.6290 O   0  0  0  0  0  0  0  0  0  0  0  0
   15.4780   34.7830   96.5320 C   0  0  0  0  0  0  0  0  0  0  0  0
   16.2780   35.9250   95.9010 C   0  0  0  0  0  0  0  0  0  0  0  0
   16.9820   33.0020   88.6670 C   0  0  0  0  0  0  0  0  0  0  0  0
   17.2540   32.6410   87.3600 C   0  0  0  0  0  0  0  0  0  0  0  0
   16.2480   32.6570   86.4120 C   0  0  0  0  0  0  0  0  0  0  0  0
   14.9640   33.0380   86.7700 C   0  0  0  0  0  0  0  0  0  0  0  0
   14.6910   33.4020   88.0860 C   0  0  0  0  0  0  0  0  0  0  0  0
   15.7030   33.3770   89.0320 C   0  0  0  0  0  0  0  0  0  0  0  0
   13.9740   33.0560   85.8390 O   0  0  0  0  0  0  0  0  0  0  0  0
   13.4330   33.7760   88.4420 O   0  0  0  0  0  0  0  0  0  0  0  0
   17.7864   32.3827   90.5324 H   0  0  0  0  0  0  0  0  0  0  0  0
   19.5624   31.4804   89.3064 H   0  0  0  0  0  0  0  0  0  0  0  0
   20.8287   31.6086   87.0917 H   0  0  0  0  0  0  0  0  0  0  0  0
   22.1453   33.0349   85.6605 H   0  0  0  0  0  0  0  0  0  0  0  0
   22.1384   35.4237   85.9756 H   0  0  0  0  0  0  0  0  0  0  0  0
   20.8072   36.4197   87.7225 H   0  0  0  0  0  0  0  0  0  0  0  0
   14.6874   35.9282   92.2665 H   0  0  0  0  0  0  0  0  0  0  0  0
   15.8323   35.0964   90.3130 H   0  0  0  0  0  0  0  0  0  0  0  0
   19.3491   34.6724   92.5566 H   0  0  0  0  0  0  0  0  0  0  0  0
   18.2057   35.5226   94.5046 H   0  0  0  0  0  0  0  0  0  0  0  0
   15.8990   34.5362   97.4842 H   0  0  0  0  0  0  0  0  0  0  0  0
   15.5151   33.9258   95.8927 H   0  0  0  0  0  0  0  0  0  0  0  0
   14.4606   35.0886   96.6602 H   0  0  0  0  0  0  0  0  0  0  0  0
   16.2409   36.7821   96.5404 H   0  0  0  0  0  0  0  0  0  0  0  0
   17.2953   35.6192   95.7727 H   0  0  0  0  0  0  0  0  0  0  0  0
   18.2099   32.3591   87.0919 H   0  0  0  0  0  0  0  0  0  0  0  0
   16.4528   32.3853   85.4377 H   0  0  0  0  0  0  0  0  0  0  0  0
   15.5015   33.6386   90.0098 H   0  0  0  0  0  0  0  0  0  0  0  0
   14.1589   32.8109   84.9537 H   0  0  0  0  0  0  0  0  0  0  0  0
   12.7500   33.7923   87.8008 H   0  0  0  0  0  0  0  0  0  0  0  0
  1 10  1  0  0  0  0
  1  2  1  0  0  0  0
  1 15  1  0  0  0  0
  2 21  1  0  0  0  0
  2  3  1  0  0  0  0
  2 29  1  1  0  0  0
  3  4  1  0  0  0  0
  3 30  1  0  0  0  0
  4  5  2  0  0  0  0
  4  9  1  0  0  0  0
  5  6  1  0  0  0  0
  5 31  1  0  0  0  0
  6  7  2  0  0  0  0
  6 32  1  0  0  0  0
  7  8  1  0  0  0  0
  7 33  1  0  0  0  0
  8  9  2  0  0  0  0
  8 34  1  0  0  0  0
  9 10  1  0  0  0  0
 10 11  2  0  0  0  0
 12 13  2  0  0  0  0
 12 17  1  0  0  0  0
 12 18  1  0  0  0  0
 13 14  1  0  0  0  0
 13 35  1  0  0  0  0
 14 15  2  0  0  0  0
 14 36  1  0  0  0  0
 15 16  1  0  0  0  0
 16 17  2  0  0  0  0
 16 37  1  0  0  0  0
 17 38  1  0  0  0  0
 18 20  1  0  0  0  0
 19 20  1  0  0  0  0
 19 39  1  0  0  0  0
 19 40  1  0  0  0  0
 19 41  1  0  0  0  0
 20 42  1  0  0  0  0
 20 43  1  0  0  0  0
 21 22  2  0  0  0  0
 21 26  1  0  0  0  0
 22 23  1  0  0  0  0
 22 44  1  0  0  0  0
 23 24  2  0  0  0  0
 23 45  1  0  0  0  0
 24 27  1  0  0  0  0
 24 25  1  0  0  0  0
 25 28  1  0  0  0  0
 25 26  2  0  0  0  0
 26 46  1  0  0  0  0
 27 47  1  0  0  0  0
 28 48  1  0  0  0  0
M  END
$$$$
