
 OpenBabel03192116033D

 59 64  0  0  1  0  0  0  0  0999 V2000
   17.8200   34.5790   91.1820 C   0  0  0  0  0  0  0  0  0  0  0  0
   17.2700   33.7400   90.2670 C   0  0  0  0  0  0  0  0  0  0  0  0
   17.8210   33.6500   88.9750 C   0  0  0  0  0  0  0  0  0  0  0  0
   18.9420   34.4720   88.7380 C   0  0  0  0  0  0  0  0  0  0  0  0
   19.5900   34.4900   87.5140 C   0  0  1  0  0  0  0  0  0  0  0  0
   19.1000   33.6610   86.5040 C   0  0  0  0  0  0  0  0  0  0  0  0
   17.9990   32.8700   86.7790 C   0  0  0  0  0  0  0  0  0  0  0  0
   17.4060   32.8740   87.9470 N   0  0  0  0  0  0  0  0  0  0  0  0
   19.1700   35.3200   90.2800 S   0  0  0  0  0  0  0  0  0  0  0  0
   17.5290   36.1260   94.5920 C   0  0  0  0  0  0  0  0  0  0  0  0
   17.9240   35.9030   93.2890 C   0  0  0  0  0  0  0  0  0  0  0  0
   17.4000   34.8240   92.5790 C   0  0  0  0  0  0  0  0  0  0  0  0
   16.4770   33.9750   93.1910 C   0  0  0  0  0  0  0  0  0  0  0  0
   16.0890   34.2090   94.4950 C   0  0  0  0  0  0  0  0  0  0  0  0
   16.6130   35.2820   95.1940 C   0  0  0  0  0  0  0  0  0  0  0  0
   16.1850   35.5310   96.6180 C   0  0  0  0  0  0  0  0  0  0  0  0
   15.7080   36.9140   96.7510 N   0  3  0  0  0  0  0  0  0  0  0  0
   15.8820   37.4010   98.1270 C   0  0  0  0  0  0  0  0  0  0  0  0
   15.4280   38.8610   98.2070 C   0  0  0  0  0  0  0  0  0  0  0  0
   14.0720   38.9580   97.7640 O   0  0  0  0  0  0  0  0  0  0  0  0
   13.8680   38.4940   96.4270 C   0  0  0  0  0  0  0  0  0  0  0  0
   14.3050   37.0300   96.3300 C   0  0  0  0  0  0  0  0  0  0  0  0
   20.6960   35.3100   87.2980 N   0  0  0  0  0  0  0  0  0  0  0  0
   21.9850   34.8240   87.5430 C   0  0  0  0  0  0  0  0  0  0  0  0
   22.5080   33.8070   86.7460 C   0  0  0  0  0  0  0  0  0  0  0  0
   23.7740   33.3180   86.9740 C   0  0  0  0  0  0  0  0  0  0  0  0
   24.5450   33.8400   88.0070 C   0  0  0  0  0  0  0  0  0  0  0  0
   24.0230   34.8670   88.8140 C   0  0  0  0  0  0  0  0  0  0  0  0
   25.0670   35.1870   89.7900 C   0  0  0  0  0  0  0  0  0  0  0  0
   26.1070   34.3780   89.5330 C   0  0  0  0  0  0  0  0  0  0  0  0
   25.8150   33.5660   88.4710 N   0  0  0  0  0  0  0  0  0  0  0  0
   22.7390   35.3600   88.5700 C   0  0  0  0  0  0  0  0  0  0  0  0
   16.4483   33.1686   90.5188 H   0  0  0  0  0  0  0  0  0  0  0  0
   20.4414   35.1162   87.3471 H   0  0  0  0  0  0  0  0  0  0  0  0
   19.5481   33.6386   85.5746 H   0  0  0  0  0  0  0  0  0  0  0  0
   17.6314   32.2543   86.0369 H   0  0  0  0  0  0  0  0  0  0  0  0
   16.6263   32.2884   88.0825 H   0  0  0  0  0  0  0  0  0  0  0  0
   17.9176   36.9240   95.1186 H   0  0  0  0  0  0  0  0  0  0  0  0
   18.6064   36.5341   92.8407 H   0  0  0  0  0  0  0  0  0  0  0  0
   16.0856   33.1746   92.6703 H   0  0  0  0  0  0  0  0  0  0  0  0
   15.4066   33.5823   94.9495 H   0  0  0  0  0  0  0  0  0  0  0  0
   17.0170   35.3761   97.2728 H   0  0  0  0  0  0  0  0  0  0  0  0
   15.3968   34.8553   96.8770 H   0  0  0  0  0  0  0  0  0  0  0  0
   16.2720   37.4995   96.1349 H   0  0  0  0  0  0  0  0  0  0  0  0
   16.9134   37.3316   98.4032 H   0  0  0  0  0  0  0  0  0  0  0  0
   15.2956   36.8057   98.7953 H   0  0  0  0  0  0  0  0  0  0  0  0
   16.0525   39.4645   97.5819 H   0  0  0  0  0  0  0  0  0  0  0  0
   15.5009   39.2047   99.2177 H   0  0  0  0  0  0  0  0  0  0  0  0
   14.4479   39.0862   95.7503 H   0  0  0  0  0  0  0  0  0  0  0  0
   12.8323   38.5777   96.1716 H   0  0  0  0  0  0  0  0  0  0  0  0
   13.6896   36.4301   96.9675 H   0  0  0  0  0  0  0  0  0  0  0  0
   14.2043   36.6917   95.3199 H   0  0  0  0  0  0  0  0  0  0  0  0
   20.5704   36.2308   86.9732 H   0  0  0  0  0  0  0  0  0  0  0  0
   21.9403   33.4170   85.9775 H   0  0  0  0  0  0  0  0  0  0  0  0
   24.1511   32.5642   86.3786 H   0  0  0  0  0  0  0  0  0  0  0  0
   25.0133   35.8996   90.5345 H   0  0  0  0  0  0  0  0  0  0  0  0
   26.9951   34.3697   90.0585 H   0  0  0  0  0  0  0  0  0  0  0  0
   26.4208   32.8875   88.0943 H   0  0  0  0  0  0  0  0  0  0  0  0
   22.3555   36.1201   89.1532 H   0  0  0  0  0  0  0  0  0  0  0  0
  1  2  2  0  0  0  0
  1  9  1  0  0  0  0
  1 12  1  0  0  0  0
  2  3  1  0  0  0  0
  2 33  1  0  0  0  0
  3  8  1  0  0  0  0
  3  4  2  0  0  0  0
  4  5  1  0  0  0  0
  4  9  1  0  0  0  0
  5  6  1  0  0  0  0
  5 23  1  0  0  0  0
  5 34  1  1  0  0  0
  6  7  2  0  0  0  0
  6 35  1  0  0  0  0
  7  8  1  0  0  0  0
  7 36  1  0  0  0  0
  8 37  1  0  0  0  0
 10 11  2  0  0  0  0
 10 15  1  0  0  0  0
 10 38  1  0  0  0  0
 11 12  1  0  0  0  0
 11 39  1  0  0  0  0
 12 13  2  0  0  0  0
 13 14  1  0  0  0  0
 13 40  1  0  0  0  0
 14 15  2  0  0  0  0
 14 41  1  0  0  0  0
 15 16  1  0  0  0  0
 16 17  1  0  0  0  0
 16 42  1  0  0  0  0
 16 43  1  0  0  0  0
 17 22  1  0  0  0  0
 17 18  1  0  0  0  0
 17 44  1  0  0  0  0
 18 19  1  0  0  0  0
 18 45  1  0  0  0  0
 18 46  1  0  0  0  0
 19 20  1  0  0  0  0
 19 47  1  0  0  0  0
 19 48  1  0  0  0  0
 20 21  1  0  0  0  0
 21 22  1  0  0  0  0
 21 49  1  0  0  0  0
 21 50  1  0  0  0  0
 22 51  1  0  0  0  0
 22 52  1  0  0  0  0
 23 24  1  0  0  0  0
 23 53  1  0  0  0  0
 24 25  2  0  0  0  0
 24 32  1  0  0  0  0
 25 26  1  0  0  0  0
 25 54  1  0  0  0  0
 26 27  2  0  0  0  0
 26 55  1  0  0  0  0
 27 31  1  0  0  0  0
 27 28  1  0  0  0  0
 28 32  2  0  0  0  0
 28 29  1  0  0  0  0
 29 30  2  0  0  0  0
 29 56  1  0  0  0  0
 30 31  1  0  0  0  0
 30 57  1  0  0  0  0
 31 58  1  0  0  0  0
 32 59  1  0  0  0  0
M  CHG  1  17   1
M  END
$$$$
