
 OpenBabel03192116033D

 47 49  0  0  1  0  0  0  0  0999 V2000
   17.1520   33.0470   88.4570 C   0  0  0  0  0  0  0  0  0  0  0  0
   15.9830   33.2090   89.0330 N   0  0  0  0  0  0  0  0  0  0  0  0
   16.1150   33.9010   90.1070 N   0  0  0  0  0  0  0  0  0  0  0  0
   17.3760   34.2310   90.2790 C   0  0  0  0  0  0  0  0  0  0  0  0
   18.0790   33.6980   89.2380 N   0  0  0  0  0  0  0  0  0  0  0  0
   18.1940   30.1650   83.5870 C   0  0  0  0  0  0  0  0  0  0  0  0
   17.9220   30.9200   84.8620 C   0  0  0  0  0  0  0  0  0  0  0  0
   18.8750   30.9460   85.8660 C   0  0  0  0  0  0  0  0  0  0  0  0
   18.6300   31.6360   87.0350 C   0  0  0  0  0  0  0  0  0  0  0  0
   17.4190   32.3070   87.2060 C   0  0  0  0  0  0  0  0  0  0  0  0
   16.4600   32.2730   86.1930 C   0  0  0  0  0  0  0  0  0  0  0  0
   16.7190   31.5840   85.0260 C   0  0  0  0  0  0  0  0  0  0  0  0
   19.4240   33.7890   89.0170 N   0  0  0  0  0  0  0  0  0  0  0  0
   18.0350   35.1790   91.6100 S   0  0  0  0  0  0  0  0  0  0  0  0
   16.5050   35.6330   92.4630 C   0  0  0  0  0  0  0  0  0  0  0  0
   16.7730   35.7690   93.9390 C   0  0  0  0  0  0  0  0  0  0  0  0
   15.7600   36.0330   94.7870 N   0  0  0  0  0  0  0  0  0  0  0  0
   17.9020   35.6420   94.3640 O   0  0  0  0  0  0  0  0  0  0  0  0
   16.0200   36.1660   96.2220 C   0  0  2  0  0  0  0  0  0  0  0  0
   15.3040   35.0440   96.9760 C   0  0  0  0  0  0  0  0  0  0  0  0
   15.5120   37.5000   96.7040 C   0  0  0  0  0  0  0  0  0  0  0  0
   14.2290   37.9070   96.3880 C   0  0  0  0  0  0  0  0  0  0  0  0
   13.7630   39.1300   96.8310 C   0  0  0  0  0  0  0  0  0  0  0  0
   14.5810   39.9510   97.5850 C   0  0  0  0  0  0  0  0  0  0  0  0
   15.8630   39.5430   97.9060 C   0  0  0  0  0  0  0  0  0  0  0  0
   16.3290   38.3180   97.4630 C   0  0  0  0  0  0  0  0  0  0  0  0
   17.9410   37.8080   97.8610 Cl  0  0  0  0  0  0  0  0  0  0  0  0
   17.3524   30.2554   82.9325 H   0  0  0  0  0  0  0  0  0  0  0  0
   18.3611   29.1325   83.8126 H   0  0  0  0  0  0  0  0  0  0  0  0
   19.0617   30.5709   83.1103 H   0  0  0  0  0  0  0  0  0  0  0  0
   19.7702   30.4483   85.7395 H   0  0  0  0  0  0  0  0  0  0  0  0
   19.3417   31.6558   87.7821 H   0  0  0  0  0  0  0  0  0  0  0  0
   15.5595   32.7618   86.3163 H   0  0  0  0  0  0  0  0  0  0  0  0
   16.0134   31.5638   84.2731 H   0  0  0  0  0  0  0  0  0  0  0  0
   19.6620   33.2914   88.1590 H   0  0  0  0  0  0  0  0  0  0  0  0
   19.9263   33.3735   89.8015 H   0  0  0  0  0  0  0  0  0  0  0  0
   15.7687   34.8733   92.3029 H   0  0  0  0  0  0  0  0  0  0  0  0
   16.1461   36.5649   92.0788 H   0  0  0  0  0  0  0  0  0  0  0  0
   14.8439   36.1366   94.4416 H   0  0  0  0  0  0  0  0  0  0  0  0
   17.0729   36.1005   96.4010 H   0  0  0  0  0  0  0  0  0  0  0  0
   14.2511   35.1094   96.7971 H   0  0  0  0  0  0  0  0  0  0  0  0
   15.4943   35.1409   98.0245 H   0  0  0  0  0  0  0  0  0  0  0  0
   15.6658   34.0969   96.6339 H   0  0  0  0  0  0  0  0  0  0  0  0
   13.6193   37.2972   95.8211 H   0  0  0  0  0  0  0  0  0  0  0  0
   12.8035   39.4309   96.5989 H   0  0  0  0  0  0  0  0  0  0  0  0
   14.2351   40.8680   97.9082 H   0  0  0  0  0  0  0  0  0  0  0  0
   16.4714   40.1518   98.4754 H   0  0  0  0  0  0  0  0  0  0  0  0
  1 10  1  0  0  0  0
  1  2  2  0  0  0  0
  1  5  1  0  0  0  0
  2  3  1  0  0  0  0
  3  4  2  0  0  0  0
  4  5  1  0  0  0  0
  4 14  1  0  0  0  0
  5 13  1  0  0  0  0
  6  7  1  0  0  0  0
  6 28  1  0  0  0  0
  6 29  1  0  0  0  0
  6 30  1  0  0  0  0
  7 12  2  0  0  0  0
  7  8  1  0  0  0  0
  8  9  2  0  0  0  0
  8 31  1  0  0  0  0
  9 10  1  0  0  0  0
  9 32  1  0  0  0  0
 10 11  2  0  0  0  0
 11 12  1  0  0  0  0
 11 33  1  0  0  0  0
 12 34  1  0  0  0  0
 13 35  1  0  0  0  0
 13 36  1  0  0  0  0
 14 15  1  0  0  0  0
 15 16  1  0  0  0  0
 15 37  1  0  0  0  0
 15 38  1  0  0  0  0
 16 18  2  0  0  0  0
 16 17  1  0  0  0  0
 17 19  1  0  0  0  0
 17 39  1  0  0  0  0
 19 21  1  0  0  0  0
 19 20  1  0  0  0  0
 19 40  1  1  0  0  0
 20 41  1  0  0  0  0
 20 42  1  0  0  0  0
 20 43  1  0  0  0  0
 21 22  2  0  0  0  0
 21 26  1  0  0  0  0
 22 23  1  0  0  0  0
 22 44  1  0  0  0  0
 23 24  2  0  0  0  0
 23 45  1  0  0  0  0
 24 25  1  0  0  0  0
 24 46  1  0  0  0  0
 25 26  2  0  0  0  0
 25 47  1  0  0  0  0
 26 27  1  0  0  0  0
M  END
$$$$
