
 OpenBabel03192116033D

 43 46  0  0  0  0  0  0  0  0999 V2000
   17.0890   33.0690   87.3300 C   0  0  0  0  0  0  0  0  0  0  0  0
   16.0140   32.9880   86.5140 C   0  0  0  0  0  0  0  0  0  0  0  0
   14.6550   33.4580   87.5660 S   0  0  0  0  0  0  0  0  0  0  0  0
   15.5510   33.7510   89.0680 C   0  0  0  0  0  0  0  0  0  0  0  0
   15.2210   34.1260   90.2890 N   0  0  0  0  0  0  0  0  0  0  0  0
   16.1530   34.2640   91.2220 C   0  0  0  0  0  0  0  0  0  0  0  0
   17.4320   34.0220   90.9590 N   0  0  0  0  0  0  0  0  0  0  0  0
   17.8400   33.6380   89.7610 C   0  0  0  0  0  0  0  0  0  0  0  0
   16.8880   33.4770   88.7180 C   0  0  0  0  0  0  0  0  0  0  0  0
   20.9810   32.1550   85.8860 C   0  0  0  0  0  0  0  0  0  0  0  0
   20.1610   31.1400   86.3450 C   0  0  0  0  0  0  0  0  0  0  0  0
   18.8970   31.4310   86.8160 C   0  0  0  0  0  0  0  0  0  0  0  0
   18.4470   32.7510   86.8270 C   0  0  0  0  0  0  0  0  0  0  0  0
   19.2750   33.7680   86.3560 C   0  0  0  0  0  0  0  0  0  0  0  0
   20.5400   33.4670   85.8950 C   0  0  0  0  0  0  0  0  0  0  0  0
   19.1810   33.3940   89.5260 N   0  0  0  0  0  0  0  0  0  0  0  0
   15.6860   34.7720   92.8430 S   0  0  0  0  0  0  0  0  0  0  0  0
   17.2800   35.3670   93.4580 C   0  0  0  0  0  0  0  0  0  0  0  0
   17.1780   35.6420   94.9370 C   0  0  0  0  0  0  0  0  0  0  0  0
   17.3800   36.8900   95.4060 N   0  0  0  0  0  0  0  0  0  0  0  0
   16.9130   34.7420   95.7040 O   0  0  0  0  0  0  0  0  0  0  0  0
   17.2800   37.1580   96.8430 C   0  0  0  0  0  0  0  0  0  0  0  0
   16.1730   38.1500   97.0930 C   0  0  0  0  0  0  0  0  0  0  0  0
   15.4330   38.2360   98.2120 C   0  0  0  0  0  0  0  0  0  0  0  0
   14.5200   39.2980   98.0190 C   0  0  0  0  0  0  0  0  0  0  0  0
   14.7570   39.7980   96.7930 C   0  0  0  0  0  0  0  0  0  0  0  0
   15.7640   39.1020   96.2390 O   0  0  0  0  0  0  0  0  0  0  0  0
   15.9870   32.7181   85.5183 H   0  0  0  0  0  0  0  0  0  0  0  0
   21.9259   31.9331   85.5353 H   0  0  0  0  0  0  0  0  0  0  0  0
   20.4950   30.1636   86.3352 H   0  0  0  0  0  0  0  0  0  0  0  0
   18.2860   30.6735   87.1594 H   0  0  0  0  0  0  0  0  0  0  0  0
   18.9424   34.7449   86.3520 H   0  0  0  0  0  0  0  0  0  0  0  0
   21.1581   34.2209   85.5565 H   0  0  0  0  0  0  0  0  0  0  0  0
   19.8365   33.5070   90.2518 H   0  0  0  0  0  0  0  0  0  0  0  0
   19.4800   33.1073   88.6329 H   0  0  0  0  0  0  0  0  0  0  0  0
   17.5462   36.2677   92.9454 H   0  0  0  0  0  0  0  0  0  0  0  0
   18.0291   34.6229   93.2847 H   0  0  0  0  0  0  0  0  0  0  0  0
   17.5947   37.6212   94.7828 H   0  0  0  0  0  0  0  0  0  0  0  0
   18.2063   37.5607   97.1961 H   0  0  0  0  0  0  0  0  0  0  0  0
   17.0665   36.2469   97.3618 H   0  0  0  0  0  0  0  0  0  0  0  0
   15.5156   37.6409   99.0511 H   0  0  0  0  0  0  0  0  0  0  0  0
   13.8082   39.6266   98.6901 H   0  0  0  0  0  0  0  0  0  0  0  0
   14.2514   40.5826   96.3528 H   0  0  0  0  0  0  0  0  0  0  0  0
  1  2  2  0  0  0  0
  1 13  1  0  0  0  0
  1  9  1  0  0  0  0
  2  3  1  0  0  0  0
  2 28  1  0  0  0  0
  3  4  1  0  0  0  0
  4  9  2  0  0  0  0
  4  5  1  0  0  0  0
  5  6  2  0  0  0  0
  6  7  1  0  0  0  0
  6 17  1  0  0  0  0
  7  8  2  0  0  0  0
  8  9  1  0  0  0  0
  8 16  1  0  0  0  0
 10 15  2  0  0  0  0
 10 11  1  0  0  0  0
 10 29  1  0  0  0  0
 11 12  2  0  0  0  0
 11 30  1  0  0  0  0
 12 13  1  0  0  0  0
 12 31  1  0  0  0  0
 13 14  2  0  0  0  0
 14 15  1  0  0  0  0
 14 32  1  0  0  0  0
 15 33  1  0  0  0  0
 16 34  1  0  0  0  0
 16 35  1  0  0  0  0
 17 18  1  0  0  0  0
 18 19  1  0  0  0  0
 18 36  1  0  0  0  0
 18 37  1  0  0  0  0
 19 20  1  0  0  0  0
 19 21  2  0  0  0  0
 20 22  1  0  0  0  0
 20 38  1  0  0  0  0
 22 23  1  0  0  0  0
 22 39  1  0  0  0  0
 22 40  1  0  0  0  0
 23 27  1  0  0  0  0
 23 24  2  0  0  0  0
 24 25  1  0  0  0  0
 24 41  1  0  0  0  0
 25 26  2  0  0  0  0
 25 42  1  0  0  0  0
 26 27  1  0  0  0  0
 26 43  1  0  0  0  0
M  END
$$$$
