
 OpenBabel03192116033D

 50 52  0  0  0  0  0  0  0  0999 V2000
   19.0640   34.5360   90.3440 N   0  0  0  0  0  0  0  0  0  0  0  0
   20.4170   34.3960   90.5480 C   0  0  0  0  0  0  0  0  0  0  0  0
   20.6620   34.7700   91.7820 N   0  0  0  0  0  0  0  0  0  0  0  0
   19.5680   35.1250   92.3580 N   0  0  0  0  0  0  0  0  0  0  0  0
   18.5590   34.9990   91.5260 C   0  0  0  0  0  0  0  0  0  0  0  0
   21.4100   33.9210   89.5620 C   0  0  0  0  0  0  0  0  0  0  0  0
   21.5570   32.5550   89.3170 C   0  0  0  0  0  0  0  0  0  0  0  0
   22.4850   32.1160   88.3960 C   0  0  0  0  0  0  0  0  0  0  0  0
   23.2740   33.0260   87.7120 C   0  0  0  0  0  0  0  0  0  0  0  0
   23.1400   34.3810   87.9450 C   0  0  0  0  0  0  0  0  0  0  0  0
   22.2100   34.8390   88.8680 C   0  0  0  0  0  0  0  0  0  0  0  0
   22.0730   36.2070   89.1050 N   0  0  0  0  0  0  0  0  0  0  0  0
   17.8480   32.7920   89.1360 C   0  0  0  0  0  0  0  0  0  0  0  0
   18.3190   34.2470   89.1160 C   0  0  0  0  0  0  0  0  0  0  0  0
   16.8710   35.3660   91.8700 S   0  0  0  0  0  0  0  0  0  0  0  0
   16.7690   34.7990   93.5860 C   0  0  0  0  0  0  0  0  0  0  0  0
   16.9410   35.9730   94.5140 C   0  0  0  0  0  0  0  0  0  0  0  0
   16.4360   35.9250   95.7630 N   0  0  0  0  0  0  0  0  0  0  0  0
   17.5340   36.9630   94.1380 O   0  0  0  0  0  0  0  0  0  0  0  0
   16.5100   37.0510   96.5910 C   0  0  0  0  0  0  0  0  0  0  0  0
   17.6880   37.3440   97.2640 C   0  0  0  0  0  0  0  0  0  0  0  0
   17.7580   38.4550   98.0820 C   0  0  0  0  0  0  0  0  0  0  0  0
   16.6550   39.2770   98.2290 C   0  0  0  0  0  0  0  0  0  0  0  0
   15.4800   38.9880   97.5600 C   0  0  0  0  0  0  0  0  0  0  0  0
   14.2810   39.8850   97.7230 C   0  0  0  0  0  0  0  0  0  0  0  0
   15.4060   37.8810   96.7360 C   0  0  0  0  0  0  0  0  0  0  0  0
   14.1270   37.5700   96.0030 C   0  0  0  0  0  0  0  0  0  0  0  0
   20.9715   31.8736   89.8248 H   0  0  0  0  0  0  0  0  0  0  0  0
   22.5919   31.1055   88.2158 H   0  0  0  0  0  0  0  0  0  0  0  0
   23.9661   32.6898   87.0242 H   0  0  0  0  0  0  0  0  0  0  0  0
   23.7318   35.0533   87.4324 H   0  0  0  0  0  0  0  0  0  0  0  0
   21.4126   36.5294   89.7602 H   0  0  0  0  0  0  0  0  0  0  0  0
   22.6367   36.8500   88.6171 H   0  0  0  0  0  0  0  0  0  0  0  0
   17.3039   32.5809   88.2392 H   0  0  0  0  0  0  0  0  0  0  0  0
   17.2141   32.6339   89.9834 H   0  0  0  0  0  0  0  0  0  0  0  0
   18.6965   32.1433   89.1994 H   0  0  0  0  0  0  0  0  0  0  0  0
   18.9530   34.4051   88.2686 H   0  0  0  0  0  0  0  0  0  0  0  0
   17.4705   34.8958   89.0525 H   0  0  0  0  0  0  0  0  0  0  0  0
   17.5413   34.0819   93.7712 H   0  0  0  0  0  0  0  0  0  0  0  0
   15.8142   34.3470   93.7560 H   0  0  0  0  0  0  0  0  0  0  0  0
   16.0153   35.0982   96.0926 H   0  0  0  0  0  0  0  0  0  0  0  0
   18.5115   36.7319   97.1533 H   0  0  0  0  0  0  0  0  0  0  0  0
   18.6334   38.6719   98.5836 H   0  0  0  0  0  0  0  0  0  0  0  0
   16.7093   40.1075   98.8392 H   0  0  0  0  0  0  0  0  0  0  0  0
   14.5217   40.6840   98.3928 H   0  0  0  0  0  0  0  0  0  0  0  0
   13.4642   39.3198   98.1209 H   0  0  0  0  0  0  0  0  0  0  0  0
   14.0053   40.2884   96.7711 H   0  0  0  0  0  0  0  0  0  0  0  0
   14.2574   36.6833   95.4186 H   0  0  0  0  0  0  0  0  0  0  0  0
   13.8768   38.3876   95.3597 H   0  0  0  0  0  0  0  0  0  0  0  0
   13.3385   37.4183   96.7102 H   0  0  0  0  0  0  0  0  0  0  0  0
  1 14  1  0  0  0  0
  1  2  1  0  0  0  0
  1  5  1  0  0  0  0
  2  6  1  0  0  0  0
  2  3  2  0  0  0  0
  3  4  1  0  0  0  0
  4  5  2  0  0  0  0
  5 15  1  0  0  0  0
  6 11  2  0  0  0  0
  6  7  1  0  0  0  0
  7  8  2  0  0  0  0
  7 28  1  0  0  0  0
  8  9  1  0  0  0  0
  8 29  1  0  0  0  0
  9 10  2  0  0  0  0
  9 30  1  0  0  0  0
 10 11  1  0  0  0  0
 10 31  1  0  0  0  0
 11 12  1  0  0  0  0
 12 32  1  0  0  0  0
 12 33  1  0  0  0  0
 13 14  1  0  0  0  0
 13 34  1  0  0  0  0
 13 35  1  0  0  0  0
 13 36  1  0  0  0  0
 14 37  1  0  0  0  0
 14 38  1  0  0  0  0
 15 16  1  0  0  0  0
 16 17  1  0  0  0  0
 16 39  1  0  0  0  0
 16 40  1  0  0  0  0
 17 19  2  0  0  0  0
 17 18  1  0  0  0  0
 18 20  1  0  0  0  0
 18 41  1  0  0  0  0
 20 26  2  0  0  0  0
 20 21  1  0  0  0  0
 21 22  2  0  0  0  0
 21 42  1  0  0  0  0
 22 23  1  0  0  0  0
 22 43  1  0  0  0  0
 23 24  2  0  0  0  0
 23 44  1  0  0  0  0
 24 26  1  0  0  0  0
 24 25  1  0  0  0  0
 25 45  1  0  0  0  0
 25 46  1  0  0  0  0
 25 47  1  0  0  0  0
 26 27  1  0  0  0  0
 27 48  1  0  0  0  0
 27 49  1  0  0  0  0
 27 50  1  0  0  0  0
M  END
$$$$
