
 OpenBabel03192116033D

 33 34  0  0  0  0  0  0  0  0999 V2000
   16.7040   35.8260   93.7680 C   0  0  0  0  0  0  0  0  0  0  0  0
   16.4620   35.1620   94.9530 C   0  0  0  0  0  0  0  0  0  0  0  0
   15.3300   34.8450   91.9460 C   0  0  0  0  0  0  0  0  0  0  0  0
   15.2310   34.1770   90.7470 C   0  0  0  0  0  0  0  0  0  0  0  0
   16.3760   33.7670   90.0770 C   0  0  0  0  0  0  0  0  0  0  0  0
   17.6380   34.0320   90.6150 C   0  0  0  0  0  0  0  0  0  0  0  0
   17.7490   34.7010   91.8160 C   0  0  0  0  0  0  0  0  0  0  0  0
   16.5930   35.1150   92.4940 C   0  0  0  0  0  0  0  0  0  0  0  0
   16.2710   33.1080   88.8950 O   0  0  0  0  0  0  0  0  0  0  0  0
   18.7560   33.6270   89.9560 O   0  0  0  0  0  0  0  0  0  0  0  0
   16.7630   35.8140   96.2360 C   0  0  0  0  0  0  0  0  0  0  0  0
   17.6500   35.3800   96.9470 O   0  0  0  0  0  0  0  0  0  0  0  0
   15.9880   36.9960   96.6610 C   0  0  0  0  0  0  0  0  0  0  0  0
   14.5910   36.9560   96.6560 C   0  0  0  0  0  0  0  0  0  0  0  0
   13.8690   38.0600   97.0530 C   0  0  0  0  0  0  0  0  0  0  0  0
   14.5250   39.2140   97.4570 C   0  0  0  0  0  0  0  0  0  0  0  0
   15.9190   39.2620   97.4650 C   0  0  0  0  0  0  0  0  0  0  0  0
   16.6490   38.1570   97.0740 C   0  0  0  0  0  0  0  0  0  0  0  0
   13.8090   40.3010   97.8460 O   0  0  0  0  0  0  0  0  0  0  0  0
   16.5580   40.3950   97.8600 O   0  0  0  0  0  0  0  0  0  0  0  0
   15.9210   33.8360   94.9320 C   0  0  0  0  0  0  0  0  0  0  0  0
   15.4920   32.7840   94.9140 N   0  0  0  0  0  0  0  0  0  0  0  0
   16.9635   36.8248   93.7802 H   0  0  0  0  0  0  0  0  0  0  0  0
   14.4765   35.1469   92.4414 H   0  0  0  0  0  0  0  0  0  0  0  0
   14.3016   33.9799   90.3440 H   0  0  0  0  0  0  0  0  0  0  0  0
   18.6805   34.8965   92.2149 H   0  0  0  0  0  0  0  0  0  0  0  0
   15.4260   32.9289   88.5319 H   0  0  0  0  0  0  0  0  0  0  0  0
   18.6801   33.1725   89.1401 H   0  0  0  0  0  0  0  0  0  0  0  0
   14.1003   36.0995   96.3549 H   0  0  0  0  0  0  0  0  0  0  0  0
   12.8375   38.0287   97.0499 H   0  0  0  0  0  0  0  0  0  0  0  0
   17.6805   38.1879   97.0866 H   0  0  0  0  0  0  0  0  0  0  0  0
   12.8725   40.2713   97.8415 H   0  0  0  0  0  0  0  0  0  0  0  0
   16.0620   41.1444   98.1252 H   0  0  0  0  0  0  0  0  0  0  0  0
  1  8  1  0  0  0  0
  1  2  2  0  0  0  0
  1 23  1  0  0  0  0
  2 21  1  0  0  0  0
  2 11  1  0  0  0  0
  3  4  2  0  0  0  0
  3  8  1  0  0  0  0
  3 24  1  0  0  0  0
  4  5  1  0  0  0  0
  4 25  1  0  0  0  0
  5  9  1  0  0  0  0
  5  6  2  0  0  0  0
  6 10  1  0  0  0  0
  6  7  1  0  0  0  0
  7  8  2  0  0  0  0
  7 26  1  0  0  0  0
  9 27  1  0  0  0  0
 10 28  1  0  0  0  0
 11 13  1  0  0  0  0
 11 12  2  0  0  0  0
 13 14  2  0  0  0  0
 13 18  1  0  0  0  0
 14 15  1  0  0  0  0
 14 29  1  0  0  0  0
 15 16  2  0  0  0  0
 15 30  1  0  0  0  0
 16 17  1  0  0  0  0
 16 19  1  0  0  0  0
 17 18  2  0  0  0  0
 17 20  1  0  0  0  0
 18 31  1  0  0  0  0
 19 32  1  0  0  0  0
 20 33  1  0  0  0  0
 21 22  3  0  0  0  0
M  END
$$$$
