
 OpenBabel03192116033D

 65 70  0  0  1  0  0  0  0  0999 V2000
   16.7780   33.8620   90.9150 N   0  0  0  0  0  0  0  0  0  0  0  0
   15.6130   33.9120   90.1740 C   0  0  0  0  0  0  0  0  0  0  0  0
   15.6380   33.6420   88.7860 C   0  0  0  0  0  0  0  0  0  0  0  0
   16.6380   33.3060   87.8940 C   0  0  0  0  0  0  0  0  0  0  0  0
   16.0340   33.1660   86.6440 C   0  0  0  0  0  0  0  0  0  0  0  0
   14.7050   33.4130   86.7910 C   0  0  0  0  0  0  0  0  0  0  0  0
   14.4520   33.7020   88.0810 N   0  0  0  0  0  0  0  0  0  0  0  0
   13.2800   34.0280   88.7780 N   0  0  0  0  0  0  0  0  0  0  0  0
   13.3260   34.2670   90.0600 C   0  0  0  0  0  0  0  0  0  0  0  0
   14.4620   34.2080   90.7540 N   0  0  0  0  0  0  0  0  0  0  0  0
   16.5630   35.1540   96.2800 N   0  0  0  0  0  0  0  0  0  0  0  0
   16.7630   35.0190   94.9290 C   0  0  0  0  0  0  0  0  0  0  0  0
   17.5090   35.7290   93.9920 C   0  0  0  0  0  0  0  0  0  0  0  0
   17.5090   35.3440   92.6830 C   0  0  0  0  0  0  0  0  0  0  0  0
   16.7650   34.2400   92.2640 C   0  0  0  0  0  0  0  0  0  0  0  0
   16.0160   33.5190   93.1720 C   0  0  0  0  0  0  0  0  0  0  0  0
   16.0080   33.9040   94.5180 C   0  0  0  0  0  0  0  0  0  0  0  0
   15.3500   33.3890   95.7140 C   0  0  0  0  0  0  0  0  0  0  0  0
   15.7030   34.1410   96.7180 N   0  0  0  0  0  0  0  0  0  0  0  0
   17.1600   36.1880   97.1290 C   0  0  0  0  0  0  0  0  0  0  0  0
   14.0370   38.3040   96.9650 C   0  0  0  0  0  0  0  0  0  0  0  0
   14.8920   37.2200   96.8910 C   0  0  0  0  0  0  0  0  0  0  0  0
   16.2290   37.3690   97.2110 C   0  0  0  0  0  0  0  0  0  0  0  0
   16.7110   38.6030   97.6070 C   0  0  0  0  0  0  0  0  0  0  0  0
   15.8550   39.6890   97.6820 C   0  0  0  0  0  0  0  0  0  0  0  0
   16.3250   40.8940   98.0700 F   0  0  0  0  0  0  0  0  0  0  0  0
   14.5170   39.5380   97.3610 C   0  0  0  0  0  0  0  0  0  0  0  0
   18.1000   33.1260   88.2100 C   0  0  0  0  0  0  0  0  0  0  0  0
   18.6740   34.3920   88.5430 O   0  0  0  0  0  0  0  0  0  0  0  0
   20.0380   34.5350   88.1390 C   0  0  0  0  0  0  0  0  0  0  0  0
   20.8060   35.3160   89.2070 C   0  0  1  0  0  0  0  0  0  0  0  0
   20.6190   34.6410   90.5690 C   0  0  0  0  0  0  0  0  0  0  0  0
   21.4550   35.3840   91.6160 C   0  0  0  0  0  0  0  0  0  0  0  0
   22.9190   35.4020   91.1730 C   0  0  0  0  0  0  0  0  0  0  0  0
   23.0340   36.0840   89.8780 N   0  3  0  0  0  0  0  0  0  0  0  0
   22.2940   35.3370   88.8530 C   0  0  0  0  0  0  0  0  0  0  0  0
   17.6163   33.5611   90.4956 H   0  0  0  0  0  0  0  0  0  0  0  0
   16.5117   32.9186   85.7633 H   0  0  0  0  0  0  0  0  0  0  0  0
   14.0031   33.3836   86.0350 H   0  0  0  0  0  0  0  0  0  0  0  0
   12.4527   34.5100   90.5533 H   0  0  0  0  0  0  0  0  0  0  0  0
   18.0629   36.5479   94.2881 H   0  0  0  0  0  0  0  0  0  0  0  0
   18.0654   35.8751   91.9950 H   0  0  0  0  0  0  0  0  0  0  0  0
   15.4663   32.7027   92.8612 H   0  0  0  0  0  0  0  0  0  0  0  0
   14.7178   32.5745   95.7572 H   0  0  0  0  0  0  0  0  0  0  0  0
   18.0941   36.4986   96.7095 H   0  0  0  0  0  0  0  0  0  0  0  0
   17.3234   35.7936   98.1102 H   0  0  0  0  0  0  0  0  0  0  0  0
   13.0398   38.1916   96.7244 H   0  0  0  0  0  0  0  0  0  0  0  0
   14.5320   36.2987   96.5966 H   0  0  0  0  0  0  0  0  0  0  0  0
   17.7086   38.7147   97.8466 H   0  0  0  0  0  0  0  0  0  0  0  0
   13.8782   40.3465   97.4174 H   0  0  0  0  0  0  0  0  0  0  0  0
   18.6021   32.7199   87.3569 H   0  0  0  0  0  0  0  0  0  0  0  0
   18.2065   32.4568   89.0381 H   0  0  0  0  0  0  0  0  0  0  0  0
   20.0814   35.0639   87.2099 H   0  0  0  0  0  0  0  0  0  0  0  0
   20.4781   33.5671   88.0188 H   0  0  0  0  0  0  0  0  0  0  0  0
   20.4333   36.3181   89.2500 H   0  0  0  0  0  0  0  0  0  0  0  0
   20.9406   33.6221   90.5111 H   0  0  0  0  0  0  0  0  0  0  0  0
   19.5860   34.6693   90.8464 H   0  0  0  0  0  0  0  0  0  0  0  0
   21.3729   34.8849   92.5589 H   0  0  0  0  0  0  0  0  0  0  0  0
   21.0975   36.3877   91.7140 H   0  0  0  0  0  0  0  0  0  0  0  0
   23.2749   34.3973   91.0791 H   0  0  0  0  0  0  0  0  0  0  0  0
   23.5041   35.9229   91.9018 H   0  0  0  0  0  0  0  0  0  0  0  0
   24.0170   36.1408   89.6116 H   0  0  0  0  0  0  0  0  0  0  0  0
   22.6437   37.0231   89.9569 H   0  0  0  0  0  0  0  0  0  0  0  0
   22.4272   35.8096   87.9023 H   0  0  0  0  0  0  0  0  0  0  0  0
   22.6629   34.3336   88.8091 H   0  0  0  0  0  0  0  0  0  0  0  0
  1  2  1  0  0  0  0
  1 15  1  0  0  0  0
  1 37  1  0  0  0  0
  2  3  1  0  0  0  0
  2 10  2  0  0  0  0
  3  4  2  0  0  0  0
  3  7  1  0  0  0  0
  4  5  1  0  0  0  0
  4 28  1  0  0  0  0
  5  6  2  0  0  0  0
  5 38  1  0  0  0  0
  6  7  1  0  0  0  0
  6 39  1  0  0  0  0
  7  8  1  0  0  0  0
  8  9  2  0  0  0  0
  9 10  1  0  0  0  0
  9 40  1  0  0  0  0
 11 12  1  0  0  0  0
 11 19  1  0  0  0  0
 11 20  1  0  0  0  0
 12 13  2  0  0  0  0
 12 17  1  0  0  0  0
 13 14  1  0  0  0  0
 13 41  1  0  0  0  0
 14 15  2  0  0  0  0
 14 42  1  0  0  0  0
 15 16  1  0  0  0  0
 16 17  2  0  0  0  0
 16 43  1  0  0  0  0
 17 18  1  0  0  0  0
 18 19  2  0  0  0  0
 18 44  1  0  0  0  0
 20 23  1  0  0  0  0
 20 45  1  0  0  0  0
 20 46  1  0  0  0  0
 21 22  2  0  0  0  0
 21 27  1  0  0  0  0
 21 47  1  0  0  0  0
 22 23  1  0  0  0  0
 22 48  1  0  0  0  0
 23 24  2  0  0  0  0
 24 25  1  0  0  0  0
 24 49  1  0  0  0  0
 25 27  2  0  0  0  0
 25 26  1  0  0  0  0
 27 50  1  0  0  0  0
 28 29  1  0  0  0  0
 28 51  1  0  0  0  0
 28 52  1  0  0  0  0
 29 30  1  0  0  0  0
 30 31  1  0  0  0  0
 30 53  1  0  0  0  0
 30 54  1  0  0  0  0
 31 36  1  0  0  0  0
 31 32  1  0  0  0  0
 31 55  1  1  0  0  0
 32 33  1  0  0  0  0
 32 56  1  0  0  0  0
 32 57  1  0  0  0  0
 33 34  1  0  0  0  0
 33 58  1  0  0  0  0
 33 59  1  0  0  0  0
 34 35  1  0  0  0  0
 34 60  1  0  0  0  0
 34 61  1  0  0  0  0
 35 36  1  0  0  0  0
 35 62  1  0  0  0  0
 35 63  1  0  0  0  0
 36 64  1  0  0  0  0
 36 65  1  0  0  0  0
M  CHG  1  35   1
M  END
$$$$
