
 OpenBabel03192116033D

 58 62  0  0  0  0  0  0  0  0999 V2000
   16.1340   34.0010   92.3700 C   0  0  0  0  0  0  0  0  0  0  0  0
   15.6470   33.6960   91.1180 C   0  0  0  0  0  0  0  0  0  0  0  0
   16.4740   33.8540   90.0000 C   0  0  0  0  0  0  0  0  0  0  0  0
   17.7990   34.3260   90.1740 C   0  0  0  0  0  0  0  0  0  0  0  0
   18.6120   34.4770   89.0220 C   0  0  0  0  0  0  0  0  0  0  0  0
   18.0880   34.1670   87.8380 N   0  0  0  0  0  0  0  0  0  0  0  0
   16.8440   33.7300   87.7280 C   0  0  0  0  0  0  0  0  0  0  0  0
   18.2690   34.6290   91.4560 C   0  0  0  0  0  0  0  0  0  0  0  0
   16.0480   33.5710   88.7590 N   0  0  0  0  0  0  0  0  0  0  0  0
   17.4440   34.4720   92.5340 C   0  0  0  0  0  0  0  0  0  0  0  0
   20.0000   34.9630   89.1320 C   0  0  0  0  0  0  0  0  0  0  0  0
   20.4090   36.1370   89.6850 C   0  0  0  0  0  0  0  0  0  0  0  0
   21.7620   36.2370   89.6010 N   0  0  0  0  0  0  0  0  0  0  0  0
   22.2890   35.1200   88.9860 C   0  0  0  0  0  0  0  0  0  0  0  0
   23.5850   34.7340   88.6620 C   0  0  0  0  0  0  0  0  0  0  0  0
   23.8070   33.5200   88.0440 C   0  0  0  0  0  0  0  0  0  0  0  0
   25.0680   33.1460   87.7370 F   0  0  0  0  0  0  0  0  0  0  0  0
   22.7440   32.6820   87.7270 C   0  0  0  0  0  0  0  0  0  0  0  0
   23.0440   31.1650   86.9400 Cl  0  0  0  0  0  0  0  0  0  0  0  0
   21.4520   33.0520   88.0360 C   0  0  0  0  0  0  0  0  0  0  0  0
   21.2160   34.2710   88.6690 C   0  0  0  0  0  0  0  0  0  0  0  0
   15.5420   32.6840   94.2590 C   0  0  0  0  0  0  0  0  0  0  0  0
   15.3330   33.8480   93.4580 O   0  0  0  0  0  0  0  0  0  0  0  0
   17.9000   34.7730   93.7800 O   0  0  0  0  0  0  0  0  0  0  0  0
   17.5850   36.0700   94.2900 C   0  0  0  0  0  0  0  0  0  0  0  0
   16.8050   35.9260   95.5990 C   0  0  0  0  0  0  0  0  0  0  0  0
   17.1440   37.0950   96.5250 C   0  0  0  0  0  0  0  0  0  0  0  0
   16.0660   38.0910   96.4720 N   0  3  0  0  0  0  0  0  0  0  0  0
   16.1500   38.9670   97.6480 C   0  0  0  0  0  0  0  0  0  0  0  0
   15.0260   40.0050   97.5900 C   0  0  0  0  0  0  0  0  0  0  0  0
   13.7660   39.3320   97.5240 O   0  0  0  0  0  0  0  0  0  0  0  0
   13.6450   38.4480   96.4070 C   0  0  0  0  0  0  0  0  0  0  0  0
   14.7650   37.4070   96.4640 C   0  0  0  0  0  0  0  0  0  0  0  0
   14.6800   33.3537   91.0053 H   0  0  0  0  0  0  0  0  0  0  0  0
   16.4831   33.5038   86.7880 H   0  0  0  0  0  0  0  0  0  0  0  0
   19.2343   34.9695   91.5872 H   0  0  0  0  0  0  0  0  0  0  0  0
   19.7861   36.8446   90.1048 H   0  0  0  0  0  0  0  0  0  0  0  0
   22.2909   36.9985   89.9321 H   0  0  0  0  0  0  0  0  0  0  0  0
   24.3796   35.3543   88.8833 H   0  0  0  0  0  0  0  0  0  0  0  0
   20.6637   32.4293   87.7997 H   0  0  0  0  0  0  0  0  0  0  0  0
   14.8518   32.6851   95.0767 H   0  0  0  0  0  0  0  0  0  0  0  0
   16.5430   32.6863   94.6371 H   0  0  0  0  0  0  0  0  0  0  0  0
   15.3878   31.8087   93.6632 H   0  0  0  0  0  0  0  0  0  0  0  0
   16.9894   36.5994   93.5759 H   0  0  0  0  0  0  0  0  0  0  0  0
   18.4895   36.6123   94.4708 H   0  0  0  0  0  0  0  0  0  0  0  0
   17.0723   35.0053   96.0742 H   0  0  0  0  0  0  0  0  0  0  0  0
   15.7554   35.9281   95.3911 H   0  0  0  0  0  0  0  0  0  0  0  0
   18.0616   37.5456   96.2090 H   0  0  0  0  0  0  0  0  0  0  0  0
   17.2490   36.7365   97.5277 H   0  0  0  0  0  0  0  0  0  0  0  0
   16.1618   38.6493   95.6237 H   0  0  0  0  0  0  0  0  0  0  0  0
   17.0966   39.4658   97.6547 H   0  0  0  0  0  0  0  0  0  0  0  0
   16.0502   38.3813   98.5379 H   0  0  0  0  0  0  0  0  0  0  0  0
   15.1499   40.6182   96.7219 H   0  0  0  0  0  0  0  0  0  0  0  0
   15.0594   40.6196   98.4652 H   0  0  0  0  0  0  0  0  0  0  0  0
   13.7225   39.0074   95.4982 H   0  0  0  0  0  0  0  0  0  0  0  0
   12.6955   37.9559   96.4399 H   0  0  0  0  0  0  0  0  0  0  0  0
   14.6637   36.8218   97.3540 H   0  0  0  0  0  0  0  0  0  0  0  0
   14.7025   36.7670   95.6088 H   0  0  0  0  0  0  0  0  0  0  0  0
  1  2  2  0  0  0  0
  1 10  1  0  0  0  0
  1 23  1  0  0  0  0
  2  3  1  0  0  0  0
  2 34  1  0  0  0  0
  3  9  2  0  0  0  0
  3  4  1  0  0  0  0
  4  5  2  0  0  0  0
  4  8  1  0  0  0  0
  5  6  1  0  0  0  0
  5 11  1  0  0  0  0
  6  7  2  0  0  0  0
  7  9  1  0  0  0  0
  7 35  1  0  0  0  0
  8 10  2  0  0  0  0
  8 36  1  0  0  0  0
 10 24  1  0  0  0  0
 11 21  1  0  0  0  0
 11 12  2  0  0  0  0
 12 13  1  0  0  0  0
 12 37  1  0  0  0  0
 13 14  1  0  0  0  0
 13 38  1  0  0  0  0
 14 15  2  0  0  0  0
 14 21  1  0  0  0  0
 15 16  1  0  0  0  0
 15 39  1  0  0  0  0
 16 18  2  0  0  0  0
 16 17  1  0  0  0  0
 18 19  1  0  0  0  0
 18 20  1  0  0  0  0
 20 21  2  0  0  0  0
 20 40  1  0  0  0  0
 22 23  1  0  0  0  0
 22 41  1  0  0  0  0
 22 42  1  0  0  0  0
 22 43  1  0  0  0  0
 24 25  1  0  0  0  0
 25 26  1  0  0  0  0
 25 44  1  0  0  0  0
 25 45  1  0  0  0  0
 26 27  1  0  0  0  0
 26 46  1  0  0  0  0
 26 47  1  0  0  0  0
 27 28  1  0  0  0  0
 27 48  1  0  0  0  0
 27 49  1  0  0  0  0
 28 33  1  0  0  0  0
 28 29  1  0  0  0  0
 28 50  1  0  0  0  0
 29 30  1  0  0  0  0
 29 51  1  0  0  0  0
 29 52  1  0  0  0  0
 30 31  1  0  0  0  0
 30 53  1  0  0  0  0
 30 54  1  0  0  0  0
 31 32  1  0  0  0  0
 32 33  1  0  0  0  0
 32 55  1  0  0  0  0
 32 56  1  0  0  0  0
 33 57  1  0  0  0  0
 33 58  1  0  0  0  0
M  CHG  1  28   1
M  END
$$$$
