
 OpenBabel03192116033D

 57 62  0  0  0  0  0  0  0  0999 V2000
   17.8090   34.5730   91.1880 C   0  0  0  0  0  0  0  0  0  0  0  0
   17.2580   33.7160   90.2910 C   0  0  0  0  0  0  0  0  0  0  0  0
   17.8030   33.6060   88.9980 C   0  0  0  0  0  0  0  0  0  0  0  0
   18.9200   34.4290   88.7420 C   0  0  0  0  0  0  0  0  0  0  0  0
   19.5620   34.4290   87.5150 C   0  0  0  0  0  0  0  0  0  0  0  0
   19.0710   33.5810   86.5210 C   0  0  0  0  0  0  0  0  0  0  0  0
   17.9740   32.7900   86.8150 C   0  0  0  0  0  0  0  0  0  0  0  0
   17.3870   32.8110   87.9850 N   0  0  0  0  0  0  0  0  0  0  0  0
   19.1510   35.3040   90.2680 S   0  0  0  0  0  0  0  0  0  0  0  0
   16.1020   34.2470   94.5180 C   0  0  0  0  0  0  0  0  0  0  0  0
   16.4860   33.9920   93.2180 C   0  0  0  0  0  0  0  0  0  0  0  0
   17.3940   34.8400   92.5830 C   0  0  0  0  0  0  0  0  0  0  0  0
   17.9080   35.9410   93.2680 C   0  0  0  0  0  0  0  0  0  0  0  0
   17.5160   36.1840   94.5690 C   0  0  0  0  0  0  0  0  0  0  0  0
   16.6160   35.3400   95.1930 C   0  0  0  0  0  0  0  0  0  0  0  0
   16.1920   35.6120   96.6140 C   0  0  0  0  0  0  0  0  0  0  0  0
   15.6960   36.9910   96.7210 N   0  3  0  0  0  0  0  0  0  0  0  0
   15.9060   37.5230   98.0750 C   0  0  0  0  0  0  0  0  0  0  0  0
   15.4300   38.9770   98.1250 C   0  0  0  0  0  0  0  0  0  0  0  0
   14.0590   39.0390   97.7250 O   0  0  0  0  0  0  0  0  0  0  0  0
   13.8190   38.5300   96.4110 C   0  0  0  0  0  0  0  0  0  0  0  0
   14.2780   37.0710   96.3430 C   0  0  0  0  0  0  0  0  0  0  0  0
   20.6630   35.2490   87.2790 N   0  0  0  0  0  0  0  0  0  0  0  0
   21.9580   34.7590   87.4870 C   0  0  0  0  0  0  0  0  0  0  0  0
   22.4670   33.7670   86.6510 C   0  0  0  0  0  0  0  0  0  0  0  0
   23.7380   33.2740   86.8410 C   0  0  0  0  0  0  0  0  0  0  0  0
   24.5270   33.7680   87.8750 C   0  0  0  0  0  0  0  0  0  0  0  0
   24.0180   34.7690   88.7210 C   0  0  0  0  0  0  0  0  0  0  0  0
   25.0790   35.0630   89.6870 C   0  0  0  0  0  0  0  0  0  0  0  0
   26.1150   34.2650   89.3880 C   0  0  0  0  0  0  0  0  0  0  0  0
   25.8060   33.4830   88.3080 N   0  0  0  0  0  0  0  0  0  0  0  0
   22.7290   35.2660   88.5150 C   0  0  0  0  0  0  0  0  0  0  0  0
   16.4401   33.1456   90.5569 H   0  0  0  0  0  0  0  0  0  0  0  0
   19.5149   33.5447   85.5900 H   0  0  0  0  0  0  0  0  0  0  0  0
   17.6052   32.1605   86.0851 H   0  0  0  0  0  0  0  0  0  0  0  0
   15.4297   33.6211   94.9883 H   0  0  0  0  0  0  0  0  0  0  0  0
   16.1026   33.1758   92.7161 H   0  0  0  0  0  0  0  0  0  0  0  0
   18.5795   36.5721   92.8034 H   0  0  0  0  0  0  0  0  0  0  0  0
   17.8957   36.9979   95.0773 H   0  0  0  0  0  0  0  0  0  0  0  0
   17.0295   35.4824   97.2672 H   0  0  0  0  0  0  0  0  0  0  0  0
   15.4150   34.9307   96.8913 H   0  0  0  0  0  0  0  0  0  0  0  0
   16.2298   37.5664   96.0695 H   0  0  0  0  0  0  0  0  0  0  0  0
   16.9468   37.4787   98.3193 H   0  0  0  0  0  0  0  0  0  0  0  0
   15.3519   36.9393   98.7801 H   0  0  0  0  0  0  0  0  0  0  0  0
   16.0233   39.5704   97.4611 H   0  0  0  0  0  0  0  0  0  0  0  0
   15.5301   39.3530   99.1218 H   0  0  0  0  0  0  0  0  0  0  0  0
   14.3655   39.1104   95.6973 H   0  0  0  0  0  0  0  0  0  0  0  0
   12.7739   38.5881   96.1890 H   0  0  0  0  0  0  0  0  0  0  0  0
   13.6941   36.4806   97.0178 H   0  0  0  0  0  0  0  0  0  0  0  0
   14.1505   36.7007   95.3473 H   0  0  0  0  0  0  0  0  0  0  0  0
   20.5306   36.1730   86.9660 H   0  0  0  0  0  0  0  0  0  0  0  0
   21.8855   33.3985   85.8822 H   0  0  0  0  0  0  0  0  0  0  0  0
   24.1054   32.5386   86.2171 H   0  0  0  0  0  0  0  0  0  0  0  0
   25.0374   35.7535   90.4528 H   0  0  0  0  0  0  0  0  0  0  0  0
   27.0124   34.2438   89.8971 H   0  0  0  0  0  0  0  0  0  0  0  0
   26.4062   32.8171   87.9011 H   0  0  0  0  0  0  0  0  0  0  0  0
   22.3548   36.0077   89.1273 H   0  0  0  0  0  0  0  0  0  0  0  0
  1  9  1  0  0  0  0
  1  2  2  0  0  0  0
  1 12  1  0  0  0  0
  2  3  1  0  0  0  0
  2 33  1  0  0  0  0
  3  8  2  0  0  0  0
  3  4  1  0  0  0  0
  4  5  2  0  0  0  0
  4  9  1  0  0  0  0
  5  6  1  0  0  0  0
  5 23  1  0  0  0  0
  6  7  2  0  0  0  0
  6 34  1  0  0  0  0
  7  8  1  0  0  0  0
  7 35  1  0  0  0  0
 10 11  2  0  0  0  0
 10 15  1  0  0  0  0
 10 36  1  0  0  0  0
 11 12  1  0  0  0  0
 11 37  1  0  0  0  0
 12 13  2  0  0  0  0
 13 14  1  0  0  0  0
 13 38  1  0  0  0  0
 14 15  2  0  0  0  0
 14 39  1  0  0  0  0
 15 16  1  0  0  0  0
 16 17  1  0  0  0  0
 16 40  1  0  0  0  0
 16 41  1  0  0  0  0
 17 22  1  0  0  0  0
 17 18  1  0  0  0  0
 17 42  1  0  0  0  0
 18 19  1  0  0  0  0
 18 43  1  0  0  0  0
 18 44  1  0  0  0  0
 19 20  1  0  0  0  0
 19 45  1  0  0  0  0
 19 46  1  0  0  0  0
 20 21  1  0  0  0  0
 21 22  1  0  0  0  0
 21 47  1  0  0  0  0
 21 48  1  0  0  0  0
 22 49  1  0  0  0  0
 22 50  1  0  0  0  0
 23 24  1  0  0  0  0
 23 51  1  0  0  0  0
 24 25  2  0  0  0  0
 24 32  1  0  0  0  0
 25 26  1  0  0  0  0
 25 52  1  0  0  0  0
 26 27  2  0  0  0  0
 26 53  1  0  0  0  0
 27 31  1  0  0  0  0
 27 28  1  0  0  0  0
 28 32  2  0  0  0  0
 28 29  1  0  0  0  0
 29 30  2  0  0  0  0
 29 54  1  0  0  0  0
 30 31  1  0  0  0  0
 30 55  1  0  0  0  0
 31 56  1  0  0  0  0
 32 57  1  0  0  0  0
M  CHG  1  17   1
M  END
$$$$
