
 OpenBabel03192116033D

 49 50  0  0  1  0  0  0  0  0999 V2000
   16.5280   35.9110   93.0820 N   0  0  0  0  0  0  0  0  0  0  0  0
   16.0970   34.6910   92.7020 C   0  0  0  0  0  0  0  0  0  0  0  0
   16.5750   33.6970   93.2060 O   0  0  0  0  0  0  0  0  0  0  0  0
   17.5760   36.0350   94.0990 C   0  0  0  0  0  0  0  0  0  0  0  0
   16.2860   37.1720   95.8770 N   0  0  0  0  0  0  0  0  0  0  0  0
   16.9460   36.0710   95.4680 C   0  0  0  0  0  0  0  0  0  0  0  0
   17.0340   35.1090   96.2010 O   0  0  0  0  0  0  0  0  0  0  0  0
   17.7730   38.1810   98.1480 C   0  0  0  0  0  0  0  0  0  0  0  0
   16.2620   38.3710   98.0090 C   0  0  1  0  0  0  0  0  0  0  0  0
   15.9770   39.6870   97.2810 C   0  0  0  0  0  0  0  0  0  0  0  0
   14.4650   39.8760   97.1420 C   0  0  0  0  0  0  0  0  0  0  0  0
   13.8780   38.7120   96.3400 C   0  0  0  0  0  0  0  0  0  0  0  0
   14.1620   37.3970   97.0680 C   0  0  0  0  0  0  0  0  0  0  0  0
   15.6740   37.2070   97.2070 C   0  0  1  0  0  0  0  0  0  0  0  0
   15.0250   34.5640   91.6520 C   0  0  0  0  0  0  0  0  0  0  0  0
   15.5130   33.7250   90.5550 N   0  0  0  0  0  0  0  0  0  0  0  0
   16.5530   34.1360   89.8030 C   0  0  0  0  0  0  0  0  0  0  0  0
   17.0870   35.2030   90.0360 O   0  0  0  0  0  0  0  0  0  0  0  0
   17.0470   33.2900   88.6970 C   0  0  0  0  0  0  0  0  0  0  0  0
   18.1900   32.5060   88.8710 C   0  0  0  0  0  0  0  0  0  0  0  0
   18.6420   31.7150   87.8370 C   0  0  0  0  0  0  0  0  0  0  0  0
   17.9710   31.7010   86.6250 C   0  0  0  0  0  0  0  0  0  0  0  0
   18.5520   30.7060   85.3270 Cl  0  0  0  0  0  0  0  0  0  0  0  0
   16.8410   32.4780   86.4440 C   0  0  0  0  0  0  0  0  0  0  0  0
   16.3750   33.2730   87.4730 C   0  0  0  0  0  0  0  0  0  0  0  0
   14.9560   34.2470   87.2460 Cl  0  0  0  0  0  0  0  0  0  0  0  0
   16.1384   36.7189   92.6760 H   0  0  0  0  0  0  0  0  0  0  0  0
   18.1263   36.9380   93.9358 H   0  0  0  0  0  0  0  0  0  0  0  0
   18.2380   35.1970   94.0330 H   0  0  0  0  0  0  0  0  0  0  0  0
   16.2151   37.9530   95.2818 H   0  0  0  0  0  0  0  0  0  0  0  0
   17.9715   37.2610   98.6569 H   0  0  0  0  0  0  0  0  0  0  0  0
   18.1847   38.9944   98.7081 H   0  0  0  0  0  0  0  0  0  0  0  0
   18.2201   38.1547   97.1762 H   0  0  0  0  0  0  0  0  0  0  0  0
   15.8151   38.3975   98.9808 H   0  0  0  0  0  0  0  0  0  0  0  0
   16.4240   39.6611   96.3092 H   0  0  0  0  0  0  0  0  0  0  0  0
   16.3881   40.5007   97.8411 H   0  0  0  0  0  0  0  0  0  0  0  0
   14.2656   40.7961   96.6335 H   0  0  0  0  0  0  0  0  0  0  0  0
   14.0175   39.9018   98.1136 H   0  0  0  0  0  0  0  0  0  0  0  0
   14.3263   38.6861   95.3688 H   0  0  0  0  0  0  0  0  0  0  0  0
   12.8208   38.8440   96.2413 H   0  0  0  0  0  0  0  0  0  0  0  0
   13.7503   36.5833   96.5082 H   0  0  0  0  0  0  0  0  0  0  0  0
   13.7151   37.4237   98.0398 H   0  0  0  0  0  0  0  0  0  0  0  0
   15.8731   36.2867   97.7152 H   0  0  0  0  0  0  0  0  0  0  0  0
   14.7775   35.5346   91.2758 H   0  0  0  0  0  0  0  0  0  0  0  0
   14.1544   34.1160   92.0835 H   0  0  0  0  0  0  0  0  0  0  0  0
   15.0811   32.8605   90.3670 H   0  0  0  0  0  0  0  0  0  0  0  0
   18.6944   32.5191   89.7712 H   0  0  0  0  0  0  0  0  0  0  0  0
   19.4831   31.1311   87.9659 H   0  0  0  0  0  0  0  0  0  0  0  0
   16.3454   32.4637   85.5389 H   0  0  0  0  0  0  0  0  0  0  0  0
  1  2  1  0  0  0  0
  1  4  1  0  0  0  0
  1 27  1  0  0  0  0
  2 15  1  0  0  0  0
  2  3  2  0  0  0  0
  4  6  1  0  0  0  0
  4 28  1  0  0  0  0
  4 29  1  0  0  0  0
  5  6  1  0  0  0  0
  5 14  1  0  0  0  0
  5 30  1  0  0  0  0
  6  7  2  0  0  0  0
  8  9  1  0  0  0  0
  8 31  1  0  0  0  0
  8 32  1  0  0  0  0
  8 33  1  0  0  0  0
  9 14  1  6  0  0  0
  9 10  1  0  0  0  0
  9 34  1  0  0  0  0
 10 11  1  0  0  0  0
 10 35  1  0  0  0  0
 10 36  1  0  0  0  0
 11 12  1  0  0  0  0
 11 37  1  0  0  0  0
 11 38  1  0  0  0  0
 12 13  1  0  0  0  0
 12 39  1  0  0  0  0
 12 40  1  0  0  0  0
 13 14  1  0  0  0  0
 13 41  1  0  0  0  0
 13 42  1  0  0  0  0
 14 43  1  1  0  0  0
 15 16  1  0  0  0  0
 15 44  1  0  0  0  0
 15 45  1  0  0  0  0
 16 17  1  0  0  0  0
 16 46  1  0  0  0  0
 17 19  1  0  0  0  0
 17 18  2  0  0  0  0
 19 25  2  0  0  0  0
 19 20  1  0  0  0  0
 20 21  2  0  0  0  0
 20 47  1  0  0  0  0
 21 22  1  0  0  0  0
 21 48  1  0  0  0  0
 22 23  1  0  0  0  0
 22 24  2  0  0  0  0
 24 25  1  0  0  0  0
 24 49  1  0  0  0  0
 25 26  1  0  0  0  0
M  END
$$$$
