
 OpenBabel03192116033D

 55 58  0  0  0  0  0  0  0  0999 V2000
   15.9680   32.9310   86.8900 C   0  0  0  0  0  0  0  0  0  0  0  0
   14.7480   33.3810   87.3420 C   0  0  0  0  0  0  0  0  0  0  0  0
   14.5920   33.7120   88.6940 C   0  0  0  0  0  0  0  0  0  0  0  0
   15.6930   33.5780   89.5750 C   0  0  0  0  0  0  0  0  0  0  0  0
   15.5060   33.9190   90.9360 C   0  0  0  0  0  0  0  0  0  0  0  0
   16.5400   33.8090   91.8430 N   0  0  0  0  0  0  0  0  0  0  0  0
   14.3090   34.3470   91.3160 N   0  0  0  0  0  0  0  0  0  0  0  0
   13.3090   34.4570   90.4570 C   0  0  0  0  0  0  0  0  0  0  0  0
   16.9230   33.1180   89.0900 C   0  0  0  0  0  0  0  0  0  0  0  0
   13.4250   34.1550   89.1850 N   0  0  0  0  0  0  0  0  0  0  0  0
   17.0520   32.7950   87.7690 C   0  0  0  0  0  0  0  0  0  0  0  0
   16.3080   34.0530   93.2010 C   0  0  0  0  0  0  0  0  0  0  0  0
   15.6870   33.0890   93.9840 C   0  0  0  0  0  0  0  0  0  0  0  0
   15.4590   33.3300   95.3250 C   0  0  0  0  0  0  0  0  0  0  0  0
   15.8490   34.5330   95.8890 C   0  0  0  0  0  0  0  0  0  0  0  0
   15.6250   34.7680   97.2010 F   0  0  0  0  0  0  0  0  0  0  0  0
   16.4690   35.4960   95.1100 C   0  0  0  0  0  0  0  0  0  0  0  0
   16.9570   37.0040   95.8200 Cl  0  0  0  0  0  0  0  0  0  0  0  0
   16.7040   35.2570   93.7690 C   0  0  0  0  0  0  0  0  0  0  0  0
   15.4060   31.4680   85.1030 C   0  0  0  0  0  0  0  0  0  0  0  0
   16.1220   32.6090   85.5790 O   0  0  0  0  0  0  0  0  0  0  0  0
   18.2460   32.3430   87.3000 O   0  0  0  0  0  0  0  0  0  0  0  0
   19.3850   32.5270   88.1420 C   0  0  0  0  0  0  0  0  0  0  0  0
   20.1460   33.7800   87.7030 C   0  0  0  0  0  0  0  0  0  0  0  0
   20.3760   34.6460   88.8670 N   0  3  0  0  0  0  0  0  0  0  0  0
   20.6240   33.8150   90.0520 C   0  0  0  0  0  0  0  0  0  0  0  0
   20.9440   34.7110   91.2510 C   0  0  0  0  0  0  0  0  0  0  0  0
   19.7570   35.6420   91.5170 C   0  0  0  0  0  0  0  0  0  0  0  0
   19.4610   36.4490   90.2500 C   0  0  0  0  0  0  0  0  0  0  0  0
   19.1960   35.4900   89.0880 C   0  0  0  0  0  0  0  0  0  0  0  0
   13.9540   33.4738   86.6893 H   0  0  0  0  0  0  0  0  0  0  0  0
   17.4409   33.5589   91.5346 H   0  0  0  0  0  0  0  0  0  0  0  0
   12.3972   34.7953   90.8024 H   0  0  0  0  0  0  0  0  0  0  0  0
   17.7288   33.0233   89.7277 H   0  0  0  0  0  0  0  0  0  0  0  0
   15.3958   32.1924   93.5641 H   0  0  0  0  0  0  0  0  0  0  0  0
   14.9978   32.6131   95.9067 H   0  0  0  0  0  0  0  0  0  0  0  0
   17.1728   35.9719   93.1909 H   0  0  0  0  0  0  0  0  0  0  0  0
   15.6131   31.3253   84.0630 H   0  0  0  0  0  0  0  0  0  0  0  0
   14.3562   31.6232   85.2395 H   0  0  0  0  0  0  0  0  0  0  0  0
   15.7124   30.6009   85.6500 H   0  0  0  0  0  0  0  0  0  0  0  0
   20.0270   31.6744   88.0651 H   0  0  0  0  0  0  0  0  0  0  0  0
   19.0643   32.6413   89.1564 H   0  0  0  0  0  0  0  0  0  0  0  0
   19.5703   34.3094   86.9728 H   0  0  0  0  0  0  0  0  0  0  0  0
   21.0862   33.4959   87.2784 H   0  0  0  0  0  0  0  0  0  0  0  0
   21.1873   35.2406   88.6978 H   0  0  0  0  0  0  0  0  0  0  0  0
   21.4519   33.1640   89.8632 H   0  0  0  0  0  0  0  0  0  0  0  0
   19.7519   33.2333   90.2664 H   0  0  0  0  0  0  0  0  0  0  0  0
   21.8155   35.2944   91.0390 H   0  0  0  0  0  0  0  0  0  0  0  0
   21.1250   34.1047   92.1139 H   0  0  0  0  0  0  0  0  0  0  0  0
   19.9969   36.3087   92.3188 H   0  0  0  0  0  0  0  0  0  0  0  0
   18.8978   35.0636   91.7855 H   0  0  0  0  0  0  0  0  0  0  0  0
   20.3015   37.0688   90.0169 H   0  0  0  0  0  0  0  0  0  0  0  0
   18.5998   37.0634   90.4103 H   0  0  0  0  0  0  0  0  0  0  0  0
   18.3546   34.8716   89.3215 H   0  0  0  0  0  0  0  0  0  0  0  0
   18.9914   36.0537   88.2018 H   0  0  0  0  0  0  0  0  0  0  0  0
  1 21  1  0  0  0  0
  1  2  2  0  0  0  0
  1 11  1  0  0  0  0
  2  3  1  0  0  0  0
  2 31  1  0  0  0  0
  3 10  2  0  0  0  0
  3  4  1  0  0  0  0
  4  9  1  0  0  0  0
  4  5  2  0  0  0  0
  5  7  1  0  0  0  0
  5  6  1  0  0  0  0
  6 12  1  0  0  0  0
  6 32  1  0  0  0  0
  7  8  2  0  0  0  0
  8 10  1  0  0  0  0
  8 33  1  0  0  0  0
  9 11  2  0  0  0  0
  9 34  1  0  0  0  0
 11 22  1  0  0  0  0
 12 19  2  0  0  0  0
 12 13  1  0  0  0  0
 13 14  2  0  0  0  0
 13 35  1  0  0  0  0
 14 15  1  0  0  0  0
 14 36  1  0  0  0  0
 15 17  2  0  0  0  0
 15 16  1  0  0  0  0
 17 19  1  0  0  0  0
 17 18  1  0  0  0  0
 19 37  1  0  0  0  0
 20 21  1  0  0  0  0
 20 38  1  0  0  0  0
 20 39  1  0  0  0  0
 20 40  1  0  0  0  0
 22 23  1  0  0  0  0
 23 24  1  0  0  0  0
 23 41  1  0  0  0  0
 23 42  1  0  0  0  0
 24 25  1  0  0  0  0
 24 43  1  0  0  0  0
 24 44  1  0  0  0  0
 25 30  1  0  0  0  0
 25 26  1  0  0  0  0
 25 45  1  0  0  0  0
 26 27  1  0  0  0  0
 26 46  1  0  0  0  0
 26 47  1  0  0  0  0
 27 28  1  0  0  0  0
 27 48  1  0  0  0  0
 27 49  1  0  0  0  0
 28 29  1  0  0  0  0
 28 50  1  0  0  0  0
 28 51  1  0  0  0  0
 29 30  1  0  0  0  0
 29 52  1  0  0  0  0
 29 53  1  0  0  0  0
 30 54  1  0  0  0  0
 30 55  1  0  0  0  0
M  CHG  1  25   1
M  END
$$$$
