
 OpenBabel03192116033D

 59 60  0  0  0  0  0  0  0  0999 V2000
   14.7130   33.9060   87.1730 C   0  0  0  0  0  0  0  0  0  0  0  0
   14.6140   32.5690   86.4340 C   0  0  0  0  0  0  0  0  0  0  0  0
   15.9630   32.2410   85.7900 C   0  0  0  0  0  0  0  0  0  0  0  0
   17.0310   32.4280   86.7740 N   0  0  0  0  0  0  0  0  0  0  0  0
   18.1050   33.1820   86.4680 C   0  0  0  0  0  0  0  0  0  0  0  0
   18.1870   33.7080   85.3730 O   0  0  0  0  0  0  0  0  0  0  0  0
   19.1800   33.3680   87.4550 C   0  0  0  0  0  0  0  0  0  0  0  0
   19.6640   34.6320   87.7160 C   0  0  0  0  0  0  0  0  0  0  0  0
   20.8320   34.8030   88.5820 C   0  0  0  0  0  0  0  0  0  0  0  0
   20.6720   35.2580   89.8990 C   0  0  0  0  0  0  0  0  0  0  0  0
   21.7770   35.4170   90.7090 C   0  0  0  0  0  0  0  0  0  0  0  0
   23.0510   35.1270   90.2180 C   0  0  0  0  0  0  0  0  0  0  0  0
   23.2120   34.6770   88.9130 C   0  0  0  0  0  0  0  0  0  0  0  0
   22.1150   34.5080   88.0990 C   0  0  0  0  0  0  0  0  0  0  0  0
   24.1360   35.2850   91.0180 O   0  0  0  0  0  0  0  0  0  0  0  0
   21.6260   35.8580   91.9870 O   0  0  0  0  0  0  0  0  0  0  0  0
   19.7220   32.2370   88.1450 C   0  0  0  0  0  0  0  0  0  0  0  0
   20.1520   31.3390   88.6930 N   0  0  0  0  0  0  0  0  0  0  0  0
   14.4370   33.6880   88.6620 C   0  0  0  0  0  0  0  0  0  0  0  0
   15.7610   33.6550   89.4280 C   0  0  0  0  0  0  0  0  0  0  0  0
   16.5560   34.1180   91.6830 C   0  0  0  0  0  0  0  0  0  0  0  0
   15.5170   33.9580   90.8400 N   0  0  0  0  0  0  0  0  0  0  0  0
   17.6950   34.0130   91.2720 O   0  0  0  0  0  0  0  0  0  0  0  0
   16.5370   35.6920   93.5840 C   0  0  0  0  0  0  0  0  0  0  0  0
   16.3100   34.4210   93.1020 C   0  0  0  0  0  0  0  0  0  0  0  0
   17.4830   35.6030   95.8800 C   0  0  0  0  0  0  0  0  0  0  0  0
   16.4340   35.9600   95.0210 C   0  0  0  0  0  0  0  0  0  0  0  0
   15.2860   36.5750   95.5410 C   0  0  0  0  0  0  0  0  0  0  0  0
   15.1950   36.8240   96.8950 C   0  0  0  0  0  0  0  0  0  0  0  0
   16.2440   36.4660   97.7430 C   0  0  0  0  0  0  0  0  0  0  0  0
   17.3830   35.8560   97.2290 C   0  0  0  0  0  0  0  0  0  0  0  0
   16.1530   36.7120   99.0740 O   0  0  0  0  0  0  0  0  0  0  0  0
   14.0840   37.4210   97.4030 O   0  0  0  0  0  0  0  0  0  0  0  0
   15.8350   33.3960   93.9820 C   0  0  0  0  0  0  0  0  0  0  0  0
   15.4580   32.5830   94.6800 N   0  0  0  0  0  0  0  0  0  0  0  0
   13.9927   34.5887   86.7730 H   0  0  0  0  0  0  0  0  0  0  0  0
   15.6957   34.3104   87.0481 H   0  0  0  0  0  0  0  0  0  0  0  0
   13.8631   32.6359   85.6746 H   0  0  0  0  0  0  0  0  0  0  0  0
   14.3525   31.7969   87.1271 H   0  0  0  0  0  0  0  0  0  0  0  0
   16.1280   32.8913   84.9564 H   0  0  0  0  0  0  0  0  0  0  0  0
   15.9607   31.2250   85.4543 H   0  0  0  0  0  0  0  0  0  0  0  0
   16.9644   32.0027   87.6594 H   0  0  0  0  0  0  0  0  0  0  0  0
   19.2034   35.4572   87.3013 H   0  0  0  0  0  0  0  0  0  0  0  0
   19.7299   35.4733   90.2611 H   0  0  0  0  0  0  0  0  0  0  0  0
   24.1566   34.4690   88.5533 H   0  0  0  0  0  0  0  0  0  0  0  0
   22.2367   34.1643   87.1336 H   0  0  0  0  0  0  0  0  0  0  0  0
   24.0290   35.5883   91.8981 H   0  0  0  0  0  0  0  0  0  0  0  0
   20.7711   36.0529   92.3174 H   0  0  0  0  0  0  0  0  0  0  0  0
   13.9238   32.7589   88.7971 H   0  0  0  0  0  0  0  0  0  0  0  0
   13.8309   34.4881   89.0327 H   0  0  0  0  0  0  0  0  0  0  0  0
   16.4287   34.3833   89.0173 H   0  0  0  0  0  0  0  0  0  0  0  0
   16.1977   32.6819   89.3428 H   0  0  0  0  0  0  0  0  0  0  0  0
   14.5946   34.0447   91.1730 H   0  0  0  0  0  0  0  0  0  0  0  0
   16.7795   36.4551   92.9329 H   0  0  0  0  0  0  0  0  0  0  0  0
   18.3296   35.1508   95.5009 H   0  0  0  0  0  0  0  0  0  0  0  0
   14.5115   36.8406   94.9128 H   0  0  0  0  0  0  0  0  0  0  0  0
   18.1553   35.5924   97.8608 H   0  0  0  0  0  0  0  0  0  0  0  0
   15.3867   37.1229   99.4232 H   0  0  0  0  0  0  0  0  0  0  0  0
   13.3796   37.6614   96.8338 H   0  0  0  0  0  0  0  0  0  0  0  0
  1  2  1  0  0  0  0
  1 19  1  0  0  0  0
  1 36  1  0  0  0  0
  1 37  1  0  0  0  0
  2  3  1  0  0  0  0
  2 38  1  0  0  0  0
  2 39  1  0  0  0  0
  3  4  1  0  0  0  0
  3 40  1  0  0  0  0
  3 41  1  0  0  0  0
  4  5  1  0  0  0  0
  4 42  1  0  0  0  0
  5  6  2  0  0  0  0
  5  7  1  0  0  0  0
  7  8  2  0  0  0  0
  7 17  1  0  0  0  0
  8  9  1  0  0  0  0
  8 43  1  0  0  0  0
  9 14  2  0  0  0  0
  9 10  1  0  0  0  0
 10 11  2  0  0  0  0
 10 44  1  0  0  0  0
 11 12  1  0  0  0  0
 11 16  1  0  0  0  0
 12 13  2  0  0  0  0
 12 15  1  0  0  0  0
 13 14  1  0  0  0  0
 13 45  1  0  0  0  0
 14 46  1  0  0  0  0
 15 47  1  0  0  0  0
 16 48  1  0  0  0  0
 17 18  3  0  0  0  0
 19 20  1  0  0  0  0
 19 49  1  0  0  0  0
 19 50  1  0  0  0  0
 20 22  1  0  0  0  0
 20 51  1  0  0  0  0
 20 52  1  0  0  0  0
 21 22  1  0  0  0  0
 21 23  2  0  0  0  0
 21 25  1  0  0  0  0
 22 53  1  0  0  0  0
 24 25  2  0  0  0  0
 24 27  1  0  0  0  0
 24 54  1  0  0  0  0
 25 34  1  0  0  0  0
 26 27  2  0  0  0  0
 26 31  1  0  0  0  0
 26 55  1  0  0  0  0
 27 28  1  0  0  0  0
 28 29  2  0  0  0  0
 28 56  1  0  0  0  0
 29 33  1  0  0  0  0
 29 30  1  0  0  0  0
 30 31  2  0  0  0  0
 30 32  1  0  0  0  0
 31 57  1  0  0  0  0
 32 58  1  0  0  0  0
 33 59  1  0  0  0  0
 34 35  3  0  0  0  0
M  END
$$$$
