
 OpenBabel03192116033D

 48 50  0  0  0  0  0  0  0  0999 V2000
   19.1400   33.6370   89.5790 N   0  0  0  0  0  0  0  0  0  0  0  0
   19.8450   34.6870   89.1150 C   0  0  0  0  0  0  0  0  0  0  0  0
   19.2660   35.6750   88.7010 O   0  0  0  0  0  0  0  0  0  0  0  0
   21.2610   34.6430   89.1100 C   0  0  0  0  0  0  0  0  0  0  0  0
   22.1380   35.2340   89.9930 C   0  0  0  0  0  0  0  0  0  0  0  0
   23.5640   35.0420   89.7820 C   0  0  0  0  0  0  0  0  0  0  0  0
   24.6470   35.5400   90.5490 C   0  0  0  0  0  0  0  0  0  0  0  0
   24.3930   36.3890   91.7690 C   0  0  0  0  0  0  0  0  0  0  0  0
   25.9310   35.2390   90.1630 C   0  0  0  0  0  0  0  0  0  0  0  0
   26.1620   34.4590   89.0400 C   0  0  0  0  0  0  0  0  0  0  0  0
   27.5760   34.1360   88.6290 C   0  0  0  0  0  0  0  0  0  0  0  0
   25.1520   33.9960   88.3290 N   0  0  0  0  0  0  0  0  0  0  0  0
   23.9050   34.2570   88.6570 C   0  0  0  0  0  0  0  0  0  0  0  0
   22.3360   33.8160   87.9530 S   0  0  0  0  0  0  0  0  0  0  0  0
   21.6720   35.9910   91.0590 N   0  0  0  0  0  0  0  0  0  0  0  0
   16.9070   34.0970   90.6050 C   0  0  0  0  0  0  0  0  0  0  0  0
   15.4900   34.0410   90.3340 C   0  0  0  0  0  0  0  0  0  0  0  0
   14.4750   34.4720   91.3610 C   0  0  0  0  0  0  0  0  0  0  0  0
   15.1140   33.5900   89.1240 C   0  0  0  0  0  0  0  0  0  0  0  0
   13.7180   33.4290   88.5790 C   0  0  0  0  0  0  0  0  0  0  0  0
   16.6610   33.2270   88.3210 S   0  0  0  0  0  0  0  0  0  0  0  0
   17.7560   33.6800   89.5840 C   0  0  0  0  0  0  0  0  0  0  0  0
   17.4250   34.5720   91.8890 C   0  0  0  0  0  0  0  0  0  0  0  0
   17.8660   35.7020   91.9870 O   0  0  0  0  0  0  0  0  0  0  0  0
   17.4140   33.7570   92.9640 O   0  0  0  0  0  0  0  0  0  0  0  0
   15.6610   33.0650   94.5060 C   0  0  0  0  0  0  0  0  0  0  0  0
   16.6260   34.1840   94.1060 C   0  0  0  0  0  0  0  0  0  0  0  0
   19.6089   32.8390   89.9146 H   0  0  0  0  0  0  0  0  0  0  0  0
   23.3388   36.5114   91.9052 H   0  0  0  0  0  0  0  0  0  0  0  0
   24.8493   37.3478   91.6376 H   0  0  0  0  0  0  0  0  0  0  0  0
   24.8107   35.9102   92.6300 H   0  0  0  0  0  0  0  0  0  0  0  0
   26.7285   35.5957   90.7124 H   0  0  0  0  0  0  0  0  0  0  0  0
   28.2596   34.5908   89.3151 H   0  0  0  0  0  0  0  0  0  0  0  0
   27.7559   34.5127   87.6438 H   0  0  0  0  0  0  0  0  0  0  0  0
   27.7161   33.0752   88.6364 H   0  0  0  0  0  0  0  0  0  0  0  0
   20.7039   36.1129   91.1902 H   0  0  0  0  0  0  0  0  0  0  0  0
   22.3095   36.4060   91.6839 H   0  0  0  0  0  0  0  0  0  0  0  0
   14.9796   34.7943   92.2478 H   0  0  0  0  0  0  0  0  0  0  0  0
   13.8329   33.6488   91.5952 H   0  0  0  0  0  0  0  0  0  0  0  0
   13.8918   35.2790   90.9692 H   0  0  0  0  0  0  0  0  0  0  0  0
   13.0087   33.7382   89.3181 H   0  0  0  0  0  0  0  0  0  0  0  0
   13.5487   32.4023   88.3296 H   0  0  0  0  0  0  0  0  0  0  0  0
   13.6056   34.0322   87.7024 H   0  0  0  0  0  0  0  0  0  0  0  0
   15.0799   33.3791   95.3477 H   0  0  0  0  0  0  0  0  0  0  0  0
   16.2183   32.1888   94.7643 H   0  0  0  0  0  0  0  0  0  0  0  0
   15.0104   32.8449   93.6856 H   0  0  0  0  0  0  0  0  0  0  0  0
   16.0689   35.0602   93.8476 H   0  0  0  0  0  0  0  0  0  0  0  0
   17.2766   34.4046   94.9263 H   0  0  0  0  0  0  0  0  0  0  0  0
  1  2  1  0  0  0  0
  1 22  1  0  0  0  0
  1 28  1  0  0  0  0
  2  3  2  0  0  0  0
  2  4  1  0  0  0  0
  4 14  1  0  0  0  0
  4  5  2  0  0  0  0
  5  6  1  0  0  0  0
  5 15  1  0  0  0  0
  6 13  2  0  0  0  0
  6  7  1  0  0  0  0
  7  9  2  0  0  0  0
  7  8  1  0  0  0  0
  8 29  1  0  0  0  0
  8 30  1  0  0  0  0
  8 31  1  0  0  0  0
  9 10  1  0  0  0  0
  9 32  1  0  0  0  0
 10 12  2  0  0  0  0
 10 11  1  0  0  0  0
 11 33  1  0  0  0  0
 11 34  1  0  0  0  0
 11 35  1  0  0  0  0
 12 13  1  0  0  0  0
 13 14  1  0  0  0  0
 15 36  1  0  0  0  0
 15 37  1  0  0  0  0
 16 22  2  0  0  0  0
 16 17  1  0  0  0  0
 16 23  1  0  0  0  0
 17 19  2  0  0  0  0
 17 18  1  0  0  0  0
 18 38  1  0  0  0  0
 18 39  1  0  0  0  0
 18 40  1  0  0  0  0
 19 21  1  0  0  0  0
 19 20  1  0  0  0  0
 20 41  1  0  0  0  0
 20 42  1  0  0  0  0
 20 43  1  0  0  0  0
 21 22  1  0  0  0  0
 23 24  2  0  0  0  0
 23 25  1  0  0  0  0
 25 27  1  0  0  0  0
 26 27  1  0  0  0  0
 26 44  1  0  0  0  0
 26 45  1  0  0  0  0
 26 46  1  0  0  0  0
 27 47  1  0  0  0  0
 27 48  1  0  0  0  0
M  END
$$$$
