
 OpenBabel03192116033D

 33 34  0  0  0  0  0  0  0  0999 V2000
   16.6710   35.6620   93.7260 C   0  0  0  0  0  0  0  0  0  0  0  0
   16.4450   34.9400   94.8810 C   0  0  0  0  0  0  0  0  0  0  0  0
   15.3120   34.7690   91.8480 C   0  0  0  0  0  0  0  0  0  0  0  0
   15.2220   34.1530   90.6210 C   0  0  0  0  0  0  0  0  0  0  0  0
   16.3730   33.7640   89.9470 C   0  0  0  0  0  0  0  0  0  0  0  0
   17.6300   33.9960   90.5100 C   0  0  0  0  0  0  0  0  0  0  0  0
   17.7320   34.6130   91.7400 C   0  0  0  0  0  0  0  0  0  0  0  0
   16.5700   35.0060   92.4220 C   0  0  0  0  0  0  0  0  0  0  0  0
   16.2780   33.1560   88.7370 O   0  0  0  0  0  0  0  0  0  0  0  0
   18.7530   33.6120   89.8480 O   0  0  0  0  0  0  0  0  0  0  0  0
   16.7360   35.5410   96.1910 C   0  0  0  0  0  0  0  0  0  0  0  0
   17.5730   35.0390   96.9180 O   0  0  0  0  0  0  0  0  0  0  0  0
   16.0130   36.7530   96.6230 C   0  0  0  0  0  0  0  0  0  0  0  0
   14.6190   36.7360   96.7280 C   0  0  0  0  0  0  0  0  0  0  0  0
   13.9460   37.8680   97.1320 C   0  0  0  0  0  0  0  0  0  0  0  0
   14.6480   39.0270   97.4340 C   0  0  0  0  0  0  0  0  0  0  0  0
   13.9790   40.1410   97.8310 O   0  0  0  0  0  0  0  0  0  0  0  0
   16.0380   39.0510   97.3320 C   0  0  0  0  0  0  0  0  0  0  0  0
   16.7200   37.9180   96.9330 C   0  0  0  0  0  0  0  0  0  0  0  0
   16.7220   40.1880   97.6280 O   0  0  0  0  0  0  0  0  0  0  0  0
   15.9290   33.6070   94.8010 C   0  0  0  0  0  0  0  0  0  0  0  0
   15.5180   32.5500   94.7390 N   0  0  0  0  0  0  0  0  0  0  0  0
   16.9111   36.6641   93.7824 H   0  0  0  0  0  0  0  0  0  0  0  0
   14.4548   35.0565   92.3457 H   0  0  0  0  0  0  0  0  0  0  0  0
   14.2961   33.9792   90.1997 H   0  0  0  0  0  0  0  0  0  0  0  0
   18.6601   34.7850   92.1573 H   0  0  0  0  0  0  0  0  0  0  0  0
   15.4363   32.9988   88.3564 H   0  0  0  0  0  0  0  0  0  0  0  0
   18.6843   33.1930   89.0127 H   0  0  0  0  0  0  0  0  0  0  0  0
   14.0946   35.8761   96.5030 H   0  0  0  0  0  0  0  0  0  0  0  0
   12.9171   37.8545   97.2104 H   0  0  0  0  0  0  0  0  0  0  0  0
   13.0447   40.1267   97.9001 H   0  0  0  0  0  0  0  0  0  0  0  0
   17.7496   37.9318   96.8639 H   0  0  0  0  0  0  0  0  0  0  0  0
   16.2589   40.9563   97.8986 H   0  0  0  0  0  0  0  0  0  0  0  0
  1  8  1  0  0  0  0
  1  2  2  0  0  0  0
  1 23  1  0  0  0  0
  2 21  1  0  0  0  0
  2 11  1  0  0  0  0
  3  4  2  0  0  0  0
  3  8  1  0  0  0  0
  3 24  1  0  0  0  0
  4  5  1  0  0  0  0
  4 25  1  0  0  0  0
  5  9  1  0  0  0  0
  5  6  2  0  0  0  0
  6 10  1  0  0  0  0
  6  7  1  0  0  0  0
  7  8  2  0  0  0  0
  7 26  1  0  0  0  0
  9 27  1  0  0  0  0
 10 28  1  0  0  0  0
 11 13  1  0  0  0  0
 11 12  2  0  0  0  0
 13 14  2  0  0  0  0
 13 19  1  0  0  0  0
 14 15  1  0  0  0  0
 14 29  1  0  0  0  0
 15 16  2  0  0  0  0
 15 30  1  0  0  0  0
 16 18  1  0  0  0  0
 16 17  1  0  0  0  0
 17 31  1  0  0  0  0
 18 19  2  0  0  0  0
 18 20  1  0  0  0  0
 19 32  1  0  0  0  0
 20 33  1  0  0  0  0
 21 22  3  0  0  0  0
M  END
$$$$
