#	Name:			<unnamed>
#	Creating user name:	mdl
#	Creation time:		Thu Nov 15 12:45:26 2007

#	Modifying user name:	mdl
#	Modification time:	Thu Nov 15 12:47:09 2007

@<TRIPOS>MOLECULE
****
    2     1     1     0     0
SMALL
NO_CHARGES


@<TRIPOS>ATOM
      1 N1         -1.6916   -1.4815   -2.2860 N.2       1 <1>         0.0000 
      2 N2         -0.9528   -0.8787   -1.3359 N.2       1 <1>         0.0000 
@<TRIPOS>BOND
     1    2    1 2    
@<TRIPOS>SUBSTRUCTURE
     1 ****        2 TEMP              0 ****  ****    0 ROOT 
