#	Name:			1-di-Br-ethylene
#	Creating user name:	mdl
#	Creation time:		Thu Nov 15 12:23:15 2007

#	Modifying user name:	mdl
#	Modification time:	Thu Nov 15 12:23:49 2007

@<TRIPOS>MOLECULE
1-di-Br-ethylene
    7     6     1     1     0
SMALL
USER_CHARGES
INVALID_CHARGES

@<TRIPOS>ATOM
      1 C1         -2.3105    4.5993   -4.0984 C.2       1 <1>         0.0000 
      2 C2         -1.1893    4.5393   -3.3726 C.2       1 <1>         0.0000 
      3 O3         -0.6299    3.3657   -3.0923 O.3       1 <1>         0.0000 
      4 H3         -0.7310    5.4576   -3.0085 H         1 <1>         0.0000 
      5 H1         -2.7726    5.5582   -4.3308 H         1 <1>         0.0000 
      6 H2         -2.7821    3.6903   -4.4705 H         1 <1>         0.0000 
      7 H4          0.1531    3.5042   -2.5725 H         1 <1>         0.0000 
@<TRIPOS>BOND
     1    2    1 2    
     2    2    3 1    
     3    2    4 1    
     4    1    5 1    
     5    1    6 1    
     6    3    7 1    
@<TRIPOS>SUBSTRUCTURE
     1 ****        2 TEMP              0 ****  ****    0 ROOT 
@<TRIPOS>NORMAL
@<TRIPOS>FF_PBC
FORCE_FIELD_SETUP_FEATURE Force Field Setup information
v1.0  0 0.000000 0.000000 0.000000 0.000000 0.000000 0.000000 NONE 0 0 0 0 0 0 0 0 0 0 0 0 0
