#	Name:			di-F-methane
#	Creating user name:	arthur
#	Creation time:		Fri Jan  8 20:40:57 1999

#	Modifying user name:	arthur
#	Modification time:	Fri Jan  8 20:41:46 1999

@<TRIPOS>MOLECULE
di-F-methane
    5     4     1     1     0
SMALL
USER_CHARGES


@<TRIPOS>ATOM
      1 F1         -0.0450    2.5289   -2.0483 F         1 <1>         0.0000 
      2 C2         -0.4574    3.7772   -1.7000 C.3       1 <1>         0.0000 
      3 F3         -1.8146    3.8398   -1.7600 F         1 <1>         0.0000 
      4 H1         -0.0254    4.5130   -2.3942 H         1 <1>         0.0000 
      5 H2         -0.1251    4.0004   -0.6754 H         1 <1>         0.0000 
@<TRIPOS>BOND
     1    2    1 1    
     2    2    3 1    
     3    2    4 1    
     4    2    5 1    
@<TRIPOS>SUBSTRUCTURE
     1 ****        2 TEMP              0 ****  ****    0 ROOT 
@<TRIPOS>NORMAL
@<TRIPOS>FF_PBC
FORCE_FIELD_SETUP_FEATURE Force Field Setup information
v1.0  0 0.000000 0.000000 0.000000 0.000000 0.000000 0.000000 NONE 0 0 0 0 0 0 0 0 0 0 0 0 0
