#	Name:			<unnamed>
#	Creating user name:	mdl
#	Creation time:		Fri Dec 14 20:37:59 2007

#	Modifying user name:	mdl
#	Modification time:	Fri Dec 14 20:38:41 2007

@<TRIPOS>MOLECULE
****
   14    14     1     1     0
SMALL
USER_CHARGES


@<TRIPOS>ATOM
      1 C1         -1.7935    2.6769   -6.4387 C.2       1 <1>         2.0000 
      2 C2         -1.3383    2.8168   -5.1887 C.2       1 <1>         2.0000 
      3 C3         -0.4850    1.7820   -4.5036 C.3       1 <1>         2.0000 
      4 C4         -0.1917    0.5754   -5.3557 C.2       1 <1>         2.0000 
      5 C5         -0.6469    0.4355   -6.6057 C.2       1 <1>         2.0000 
      6 C6         -1.5001    1.4702   -7.2908 C.3       1 <1>         2.0000 
      7 H1         -2.4076    3.4687   -6.8716 H         1 <1>         0.0000 
      8 H2         -1.5912    3.7198   -4.6298 H         1 <1>         0.0000 
      9 H3         -1.0024    1.4492   -3.5905 H         1 <1>         0.0000 
     10 H4          0.4698    2.2489   -4.2161 H         1 <1>         0.0000 
     11 H5          0.4224   -0.2165   -4.9228 H         1 <1>         0.0000 
     12 H6         -0.3941   -0.4674   -7.1648 H         1 <1>         0.0000 
     13 H7         -2.4550    1.0035   -7.5783 H         1 <1>         0.0000 
     14 H8         -0.9828    1.8032   -8.2039 H         1 <1>         0.0000 
@<TRIPOS>BOND
     1    2    1 2    
     2    2    3 1    
     3    3    4 1    
     4    4    5 2    
     5    5    6 1    
     6    1    6 1    
     7    1    7 1    
     8    2    8 1    
     9    3    9 1    
    10    3   10 1    
    11    4   11 1    
    12    5   12 1    
    13    6   13 1    
    14    6   14 1    
@<TRIPOS>SUBSTRUCTURE
     1 ****        2 TEMP              0 ****  ****    0 ROOT 
@<TRIPOS>NORMAL
@<TRIPOS>FF_PBC
FORCE_FIELD_SETUP_FEATURE Force Field Setup information
v1.0  0 0.000000 0.000000 0.000000 0.000000 0.000000 0.000000 NONE 0 0 0 0 0 0 0 0 0 0 0 0 0
