#	Name:			di-Cl-methane
#	Creating user name:	arthur
#	Creation time:		Fri Jan  8 20:40:57 1999

#	Modifying user name:	arthur
#	Modification time:	Fri Jan  8 20:42:57 1999

@<TRIPOS>MOLECULE
di-Cl-methane
    5     4     1     1     0
SMALL
USER_CHARGES


@<TRIPOS>ATOM
      1 Cl1         0.0799    2.1554   -2.1519 Cl        1 <1>         0.0000 
      2 C2         -0.4572    3.7770   -1.6998 C.3       1 <1>         0.0000 
      3 Cl3        -2.2206    3.8568   -1.7780 Cl        1 <1>         0.0000 
      4 H1         -0.0258    4.5129   -2.3943 H         1 <1>         0.0000 
      5 H2         -0.1251    4.0009   -0.6753 H         1 <1>         0.0000 
@<TRIPOS>BOND
     1    2    1 1    
     2    2    3 1    
     3    2    4 1    
     4    2    5 1    
@<TRIPOS>SUBSTRUCTURE
     1 ****        2 TEMP              0 ****  ****    0 ROOT 
@<TRIPOS>NORMAL
@<TRIPOS>FF_PBC
FORCE_FIELD_SETUP_FEATURE Force Field Setup information
v1.0  0 0.000000 0.000000 0.000000 0.000000 0.000000 0.000000 NONE 0 0 0 0 0 0 0 0 0 0 0 0 0
