#	Name:			<unnamed>
#	Creating user name:	mdl
#	Creation time:		Thu Nov 15 12:43:57 2007

#	Modifying user name:	mdl
#	Modification time:	Thu Nov 15 12:44:32 2007

@<TRIPOS>MOLECULE
****
    3     2     1     0     0
SMALL
NO_CHARGES


@<TRIPOS>ATOM
      1 S1          2.3911   -1.6398   -0.8437 S.3       1 <1>         0.0000 
      2 H1          3.3991   -1.6398   -0.8437 H         1 <1>         0.0000 
      3 H2          2.0552   -2.1150   -1.6667 H         1 <1>         0.0000 
@<TRIPOS>BOND
     1    1    2 1    
     2    1    3 1    
@<TRIPOS>SUBSTRUCTURE
     1 ****        1 TEMP              0 ****  ****    0 ROOT 
