@<TRIPOS>MOLECULE
O=c1cc2cncnc2n[nH]1
 15 16 0 0 0
SMALL
GASTEIGER
Energy = 0

@<TRIPOS>ATOM
      1 O           1.9054   -0.7563    0.0000 O.2     1  LIG1       -0.2664
      2 C           1.1909   -0.3438    0.0000 C.ar    1  LIG1        0.2654
      3 N           1.1909    0.4812    0.0000 N.ar    1  LIG1       -0.2412
      4 N           0.4765    0.8937    0.0000 N.ar    1  LIG1       -0.1507
      5 C          -0.2380    0.4812    0.0000 C.ar    1  LIG1        0.1827
      6 N          -0.9525    0.8937    0.0000 N.ar    1  LIG1       -0.2144
      7 C          -1.6669    0.4812    0.0000 C.ar    1  LIG1        0.1184
      8 N          -1.6669   -0.3438    0.0000 N.ar    1  LIG1       -0.2430
      9 C          -0.9525   -0.7563    0.0000 C.ar    1  LIG1        0.0402
     10 C          -0.2380   -0.3438    0.0000 C.ar    1  LIG1        0.0441
     11 C           0.4765   -0.7563    0.0000 C.ar    1  LIG1        0.0163
     12 H           2.1284    1.0224    0.0000 H       1  LIG1        0.1922
     13 H          -2.6208    1.0319    0.0000 H       1  LIG1        0.1047
     14 H          -0.9525   -1.8578    0.0000 H       1  LIG1        0.0837
     15 H           0.4765   -1.8578    0.0000 H       1  LIG1        0.0680
@<TRIPOS>BOND
     1     1     2    2
     2     2     3   ar
     3     3     4   ar
     4     4     5   ar
     5     5     6   ar
     6     6     7   ar
     7     7     8   ar
     8     8     9   ar
     9     9    10   ar
    10     5    10   ar
    11    10    11   ar
    12     2    11   ar
    13     3    12    1
    14     7    13    1
    15     9    14    1
    16    11    15    1
