@<TRIPOS>MOLECULE
O=c1cnnc2cc[nH]n12
 14 15 0 0 0
SMALL
GASTEIGER
Energy = 0

@<TRIPOS>ATOM
      1 O           0.4757   -1.4525    0.0000 O.2     1  LIG1       -0.2641
      2 C           0.4757   -0.6275    0.0000 C.ar    1  LIG1        0.2915
      3 C           1.1902   -0.2150    0.0000 C.ar    1  LIG1        0.1161
      4 N           1.1902    0.6100    0.0000 N.ar    1  LIG1       -0.1502
      5 N           0.4757    1.0225    0.0000 N.ar    1  LIG1       -0.1295
      6 C          -0.2388    0.6100    0.0000 C.ar    1  LIG1        0.1790
      7 C          -1.0234    0.8649    0.0000 C.ar    1  LIG1        0.0018
      8 C          -1.5083    0.1975    0.0000 C.ar    1  LIG1        0.0231
      9 N          -1.0234   -0.4699    0.0000 N.ar    1  LIG1       -0.2959
     10 N          -0.2388   -0.2150    0.0000 N.ar    1  LIG1       -0.1983
     11 H           2.1441   -0.7658    0.0000 H       1  LIG1        0.0904
     12 H          -1.3638    1.9125    0.0000 H       1  LIG1        0.0670
     13 H          -2.6098    0.1975    0.0000 H       1  LIG1        0.0824
     14 H          -1.3579   -1.4994    0.0000 H       1  LIG1        0.1868
@<TRIPOS>BOND
     1     1     2    2
     2     2     3   ar
     3     3     4   ar
     4     4     5   ar
     5     5     6   ar
     6     6     7   ar
     7     7     8   ar
     8     8     9   ar
     9     9    10   ar
    10     2    10   ar
    11     6    10   ar
    12     3    11    1
    13     7    12    1
    14     8    13    1
    15     9    14    1
