@<TRIPOS>MOLECULE
Cn1cnc2ccoc2c1=O
 17 18 0 0 0
SMALL
GASTEIGER
Energy = 0

@<TRIPOS>ATOM
      1 C          -1.7567   -0.5603    0.0000 C.3     1  LIG1        0.0162
      2 N          -1.0423   -0.1478    0.0000 N.ar    1  LIG1       -0.2993
      3 C          -1.0423    0.6772    0.0000 C.ar    1  LIG1        0.0992
      4 N          -0.3278    1.0897    0.0000 N.ar    1  LIG1       -0.2338
      5 C           0.3867    0.6772    0.0000 C.ar    1  LIG1        0.1159
      6 C           0.3867   -0.1478    0.0000 C.ar    1  LIG1        0.2170
      7 O           1.1713   -0.4027    0.0000 O.2     1  LIG1       -0.4559
      8 C           1.6562    0.2647    0.0000 C.ar    1  LIG1        0.0949
      9 C           1.1713    0.9322    0.0000 C.ar    1  LIG1        0.0024
     10 C          -0.3278   -0.5603    0.0000 C.ar    1  LIG1        0.2967
     11 O          -0.3278   -1.3853    0.0000 O.2     1  LIG1       -0.2636
     12 H          -2.6236    0.1800    0.0000 H       1  LIG1        0.0457
     13 H          -1.8192   -1.2413    0.9121 H       1  LIG1        0.0457
     14 H          -1.8161   -1.2069   -0.9370 H       1  LIG1        0.0457
     15 H          -1.9962    1.2280    0.0000 H       1  LIG1        0.1030
     16 H           2.7577    0.2647    0.0000 H       1  LIG1        0.1030
     17 H           1.5117    1.9798    0.0000 H       1  LIG1        0.0670
@<TRIPOS>BOND
     1     1     2    1
     2     2     3   ar
     3     3     4   ar
     4     4     5   ar
     5     5     6   ar
     6     6     7   ar
     7     7     8   ar
     8     8     9   ar
     9     5     9   ar
    10     6    10   ar
    11     2    10   ar
    12    10    11    2
    13     1    12    1
    14     1    13    1
    15     1    14    1
    16     3    15    1
    17     8    16    1
    18     9    17    1
