@<TRIPOS>MOLECULE
Cn1cnc(=O)c2cn[nH]c12
 17 18 0 0 0
SMALL
GASTEIGER
Energy = 0

@<TRIPOS>ATOM
      1 C          -0.4536   -1.6807    0.0000 C.3     1  LIG1        0.0146
      2 N          -0.4536   -0.8557    0.0000 N.ar    1  LIG1       -0.3195
      3 C          -1.1681   -0.4432    0.0000 C.ar    1  LIG1        0.1011
      4 N          -1.1681    0.3818    0.0000 N.ar    1  LIG1       -0.1987
      5 C          -0.4536    0.7943    0.0000 C.ar    1  LIG1        0.2837
      6 O          -0.4536    1.6193    0.0000 O.2     1  LIG1       -0.2650
      7 C           0.2608    0.3818    0.0000 C.ar    1  LIG1        0.1027
      8 C           0.2608   -0.4432    0.0000 C.ar    1  LIG1        0.1425
      9 N           1.0454   -0.6982    0.0000 N.ar    1  LIG1       -0.2614
     10 N           1.5304   -0.0307    0.0000 N.ar    1  LIG1       -0.1798
     11 C           1.0454    0.6367    0.0000 C.ar    1  LIG1        0.0637
     12 H          -1.5282   -2.0612    0.0000 H       1  LIG1        0.0457
     13 H           0.1049   -2.0754    0.9121 H       1  LIG1        0.0457
     14 H           0.0766   -2.0554   -0.9370 H       1  LIG1        0.0457
     15 H          -2.1220   -0.9940    0.0000 H       1  LIG1        0.1030
     16 H           1.3799   -1.7277    0.0000 H       1  LIG1        0.1905
     17 H           1.3857    1.6843    0.0000 H       1  LIG1        0.0856
@<TRIPOS>BOND
     1     1     2    1
     2     2     3   ar
     3     3     4   ar
     4     4     5   ar
     5     5     6    2
     6     5     7   ar
     7     7     8   ar
     8     2     8   ar
     9     8     9   ar
    10     9    10   ar
    11    10    11   ar
    12     7    11   ar
    13     1    12    1
    14     1    13    1
    15     1    14    1
    16     3    15    1
    17     9    16    1
    18    11    17    1
