@<TRIPOS>MOLECULE
Cn1cnc(=O)c2nccnc12
 18 19 0 0 0
SMALL
GASTEIGER
Energy = 0

@<TRIPOS>ATOM
      1 C           0.5771   -1.6869    0.0000 C.3     1  LIG1        0.0146
      2 N           0.5771   -0.8619    0.0000 N.ar    1  LIG1       -0.3179
      3 C           1.2916   -0.4494    0.0000 C.ar    1  LIG1        0.1012
      4 N           1.2916    0.3756    0.0000 N.ar    1  LIG1       -0.1975
      5 C           0.5771    0.7881    0.0000 C.ar    1  LIG1        0.3006
      6 O           0.5771    1.6131    0.0000 O.2     1  LIG1       -0.2634
      7 C          -0.1373    0.3756    0.0000 C.ar    1  LIG1        0.1723
      8 N          -0.8518    0.7881    0.0000 N.ar    1  LIG1       -0.2451
      9 C          -1.5663    0.3756    0.0000 C.ar    1  LIG1        0.0467
     10 C          -1.5663   -0.4494    0.0000 C.ar    1  LIG1        0.0480
     11 N          -0.8518   -0.8619    0.0000 N.ar    1  LIG1       -0.2341
     12 C          -0.1373   -0.4494    0.0000 C.ar    1  LIG1        0.1654
     13 H           1.6517   -2.0674    0.0000 H       1  LIG1        0.0457
     14 H           0.0186   -2.0816   -0.9121 H       1  LIG1        0.0457
     15 H           0.0469   -2.0616    0.9370 H       1  LIG1        0.0457
     16 H           2.2455   -1.0002    0.0000 H       1  LIG1        0.1030
     17 H          -2.5202    0.9264    0.0000 H       1  LIG1        0.0845
     18 H          -2.5202   -1.0002    0.0000 H       1  LIG1        0.0846
@<TRIPOS>BOND
     1     1     2    1
     2     2     3   ar
     3     3     4   ar
     4     4     5   ar
     5     5     6    2
     6     5     7   ar
     7     7     8   ar
     8     8     9   ar
     9     9    10   ar
    10    10    11   ar
    11    11    12   ar
    12     2    12   ar
    13     7    12   ar
    14     1    13    1
    15     1    14    1
    16     1    15    1
    17     3    16    1
    18     9    17    1
    19    10    18    1
