@<TRIPOS>MOLECULE
O=c1ccc2nccn2[nH]1
 15 16 0 0 0
SMALL
GASTEIGER
Energy = 0

@<TRIPOS>ATOM
      1 O           1.7472    0.7148    0.0000 O.2     1  LIG1       -0.2665
      2 C           1.0327    0.3023    0.0000 C.ar    1  LIG1        0.2636
      3 N           0.3182    0.7148    0.0000 N.ar    1  LIG1       -0.2578
      4 N          -0.3962    0.3023    0.0000 N.ar    1  LIG1       -0.2402
      5 C          -1.1809    0.5572    0.0000 C.ar    1  LIG1        0.0475
      6 C          -1.6658   -0.1102    0.0000 C.ar    1  LIG1        0.0480
      7 N          -1.1809   -0.7777    0.0000 N.ar    1  LIG1       -0.2347
      8 C          -0.3962   -0.5227    0.0000 C.ar    1  LIG1        0.1522
      9 C           0.3182   -0.9352    0.0000 C.ar    1  LIG1       -0.0124
     10 C           1.0327   -0.5227    0.0000 C.ar    1  LIG1        0.0076
     11 H           0.3182    1.7973    0.0000 H       1  LIG1        0.1906
     12 H          -1.5213    1.6048    0.0000 H       1  LIG1        0.0845
     13 H          -2.7673   -0.1102    0.0000 H       1  LIG1        0.0846
     14 H           0.3182   -2.0367    0.0000 H       1  LIG1        0.0656
     15 H           1.9866   -1.0735    0.0000 H       1  LIG1        0.0673
@<TRIPOS>BOND
     1     1     2    2
     2     2     3   ar
     3     3     4   ar
     4     4     5   ar
     5     5     6   ar
     6     6     7   ar
     7     7     8   ar
     8     4     8   ar
     9     8     9   ar
    10     9    10   ar
    11     2    10   ar
    12     3    11    1
    13     5    12    1
    14     6    13    1
    15     9    14    1
    16    10    15    1
