@<TRIPOS>MOLECULE
O=c1cc[nH]c2nn[nH]c12
 14 15 0 0 0
SMALL
GASTEIGER
Energy = 0

@<TRIPOS>ATOM
      1 O          -0.5283   -1.4626    0.0000 O.2     1  LIG1       -0.2855
      2 C          -0.5283   -0.6376    0.0000 C.ar    1  LIG1        0.2086
      3 C          -1.2428   -0.2251    0.0000 C.ar    1  LIG1        0.0033
      4 C          -1.2428    0.5999    0.0000 C.ar    1  LIG1        0.0072
      5 N          -0.5283    1.0124    0.0000 N.ar    1  LIG1       -0.3430
      6 C           0.1861    0.5999    0.0000 C.ar    1  LIG1        0.1835
      7 C           0.1861   -0.2251    0.0000 C.ar    1  LIG1        0.1492
      8 N           0.9707   -0.4800    0.0000 N.ar    1  LIG1       -0.2519
      9 N           1.4557    0.1874    0.0000 N.ar    1  LIG1       -0.0657
     10 N           0.9707    0.8548    0.0000 N.ar    1  LIG1       -0.1113
     11 H          -2.1967   -0.7759    0.0000 H       1  LIG1        0.0671
     12 H          -2.1967    1.1507    0.0000 H       1  LIG1        0.0808
     13 H          -0.5283    2.0949    0.0000 H       1  LIG1        0.1669
     14 H           1.3052   -1.5095    0.0000 H       1  LIG1        0.1908
@<TRIPOS>BOND
     1     1     2    2
     2     2     3   ar
     3     3     4   ar
     4     4     5   ar
     5     5     6   ar
     6     6     7   ar
     7     2     7   ar
     8     7     8   ar
     9     8     9   ar
    10     9    10   ar
    11     6    10   ar
    12     3    11    1
    13     4    12    1
    14     5    13    1
    15     8    14    1
