@<TRIPOS>MOLECULE
c1cn2cnncc2n1
 13 14 0 0 0
SMALL
GASTEIGER
Energy = 0

@<TRIPOS>ATOM
      1 C           1.4550    0.0044    0.0000 C.ar    1  LIG1        0.0465
      2 C           0.9701    0.6718    0.0000 C.ar    1  LIG1        0.0308
      3 N           0.1855    0.4169    0.0000 N.ar    1  LIG1       -0.2876
      4 C          -0.5290    0.8294    0.0000 C.ar    1  LIG1        0.1241
      5 N          -1.2435    0.4169    0.0000 N.ar    1  LIG1       -0.1391
      6 N          -1.2435   -0.4081    0.0000 N.ar    1  LIG1       -0.1526
      7 C          -0.5290   -0.8206    0.0000 C.ar    1  LIG1        0.0927
      8 C           0.1855   -0.4081    0.0000 C.ar    1  LIG1        0.1587
      9 N           0.9701   -0.6631    0.0000 N.ar    1  LIG1       -0.2345
     10 H           2.5565    0.0044    0.0000 H       1  LIG1        0.0845
     11 H           1.3105    1.7194    0.0000 H       1  LIG1        0.0829
     12 H          -0.5290    1.9309    0.0000 H       1  LIG1        0.1051
     13 H          -0.5290   -1.9221    0.0000 H       1  LIG1        0.0886
@<TRIPOS>BOND
     1     1     2   ar
     2     2     3   ar
     3     3     4   ar
     4     4     5   ar
     5     5     6   ar
     6     6     7   ar
     7     7     8   ar
     8     3     8   ar
     9     8     9   ar
    10     1     9   ar
    11     1    10    1
    12     2    11    1
    13     4    12    1
    14     7    13    1
