@<TRIPOS>MOLECULE
Cn1ccc(=O)c2cncnc12
 19 20 0 0 0
SMALL
GASTEIGER
Energy = 0

@<TRIPOS>ATOM
      1 C           0.6031   -1.6767    0.0000 C.3     1  LIG1        0.0132
      2 N           0.6031   -0.8517    0.0000 N.ar    1  LIG1       -0.3347
      3 C           1.3176   -0.4392    0.0000 C.ar    1  LIG1        0.0098
      4 C           1.3176    0.3858    0.0000 C.ar    1  LIG1        0.0020
      5 C           0.6031    0.7983    0.0000 C.ar    1  LIG1        0.1924
      6 O           0.6031    1.6233    0.0000 O.2     1  LIG1       -0.2871
      7 C          -0.1114    0.3858    0.0000 C.ar    1  LIG1        0.0822
      8 C          -0.8258    0.7983    0.0000 C.ar    1  LIG1        0.0436
      9 N          -1.5403    0.3858    0.0000 N.ar    1  LIG1       -0.2429
     10 C          -1.5403   -0.4392    0.0000 C.ar    1  LIG1        0.1182
     11 N          -0.8258   -0.8517    0.0000 N.ar    1  LIG1       -0.2176
     12 C          -0.1114   -0.4392    0.0000 C.ar    1  LIG1        0.1473
     13 H           1.6777   -2.0572    0.0000 H       1  LIG1        0.0456
     14 H           0.0446   -2.0714   -0.9121 H       1  LIG1        0.0456
     15 H           0.0729   -2.0514    0.9370 H       1  LIG1        0.0456
     16 H           2.2715   -0.9900    0.0000 H       1  LIG1        0.0810
     17 H           2.2715    0.9366    0.0000 H       1  LIG1        0.0670
     18 H          -0.8258    1.8998    0.0000 H       1  LIG1        0.0838
     19 H          -2.4942   -0.9900    0.0000 H       1  LIG1        0.1047
@<TRIPOS>BOND
     1     1     2    1
     2     2     3   ar
     3     3     4   ar
     4     4     5   ar
     5     5     6    2
     6     5     7   ar
     7     7     8   ar
     8     8     9   ar
     9     9    10   ar
    10    10    11   ar
    11    11    12   ar
    12     2    12   ar
    13     7    12   ar
    14     1    13    1
    15     1    14    1
    16     1    15    1
    17     3    16    1
    18     4    17    1
    19     8    18    1
    20    10    19    1
