@<TRIPOS>MOLECULE
Cn1nc2cncnc2n1
 15 16 0 0 0
SMALL
GASTEIGER
Energy = 0

@<TRIPOS>ATOM
      1 C           2.0242    0.0063    0.0000 C.3     1  LIG1        0.0500
      2 N           1.1992    0.0063    0.0000 N.ar    1  LIG1       -0.1838
      3 N           0.7143    0.6738    0.0000 N.ar    1  LIG1       -0.1492
      4 C          -0.0704    0.4188    0.0000 C.ar    1  LIG1        0.1494
      5 C          -0.7848    0.8313    0.0000 C.ar    1  LIG1        0.0601
      6 N          -1.4993    0.4188    0.0000 N.ar    1  LIG1       -0.2414
      7 C          -1.4993   -0.4062    0.0000 C.ar    1  LIG1        0.1185
      8 N          -0.7848   -0.8187    0.0000 N.ar    1  LIG1       -0.2131
      9 C          -0.0704   -0.4062    0.0000 C.ar    1  LIG1        0.2044
     10 N           0.7143   -0.6611    0.0000 N.ar    1  LIG1       -0.1321
     11 H           2.4047    1.0809    0.0000 H       1  LIG1        0.0490
     12 H           2.4189   -0.5522   -0.9121 H       1  LIG1        0.0490
     13 H           2.3989   -0.5239    0.9370 H       1  LIG1        0.0490
     14 H          -0.7848    1.9328    0.0000 H       1  LIG1        0.0853
     15 H          -2.4532   -0.9570    0.0000 H       1  LIG1        0.1047
@<TRIPOS>BOND
     1     1     2    1
     2     2     3   ar
     3     3     4   ar
     4     4     5   ar
     5     5     6   ar
     6     6     7   ar
     7     7     8   ar
     8     8     9   ar
     9     4     9   ar
    10     9    10   ar
    11     2    10   ar
    12     1    11    1
    13     1    12    1
    14     1    13    1
    15     5    14    1
    16     7    15    1
