@<TRIPOS>MOLECULE
c1nnc2ccccn12
 14 15 0 0 0
SMALL
GASTEIGER
Energy = 0

@<TRIPOS>ATOM
      1 C           1.3124    0.4170    0.0000 C.ar    1  LIG1       -0.0450
      2 C           0.5980    0.8295    0.0000 C.ar    1  LIG1        0.0126
      3 N          -0.1165    0.4170    0.0000 N.ar    1  LIG1       -0.2890
      4 C          -0.9011    0.6719    0.0000 C.ar    1  LIG1        0.1241
      5 N          -1.3861    0.0045    0.0000 N.ar    1  LIG1       -0.1372
      6 N          -0.9011   -0.6630    0.0000 N.ar    1  LIG1       -0.1297
      7 C          -0.1165   -0.4080    0.0000 C.ar    1  LIG1        0.1609
      8 C           0.5980   -0.8205    0.0000 C.ar    1  LIG1       -0.0170
      9 C           1.3124   -0.4080    0.0000 C.ar    1  LIG1       -0.0569
     10 H           2.2663    0.9677    0.0000 H       1  LIG1        0.0632
     11 H           0.5980    1.9310    0.0000 H       1  LIG1        0.0814
     12 H          -1.2414    1.7195    0.0000 H       1  LIG1        0.1051
     13 H           0.5980   -1.9220    0.0000 H       1  LIG1        0.0655
     14 H           2.2663   -0.9587    0.0000 H       1  LIG1        0.0619
@<TRIPOS>BOND
     1     1     2   ar
     2     2     3   ar
     3     3     4   ar
     4     4     5   ar
     5     5     6   ar
     6     6     7   ar
     7     3     7   ar
     8     7     8   ar
     9     8     9   ar
    10     1     9   ar
    11     1    10    1
    12     2    11    1
    13     4    12    1
    14     8    13    1
    15     9    14    1
