@<TRIPOS>MOLECULE
Cn1nc2sccc2cc1=O
 17 18 0 0 0
SMALL
GASTEIGER
Energy = 0

@<TRIPOS>ATOM
      1 C           1.7315    0.7465    0.0000 C.3     1  LIG1        0.0340
      2 N           1.0170    0.3340    0.0000 N.ar    1  LIG1       -0.2316
      3 N           0.3025    0.7465    0.0000 N.ar    1  LIG1       -0.1612
      4 C          -0.4119    0.3340    0.0000 C.ar    1  LIG1        0.1288
      5 S          -1.1965    0.5890    0.0000 S.2     1  LIG1       -0.0754
      6 C          -1.6815   -0.0785    0.0000 C.ar    1  LIG1       -0.0217
      7 C          -1.1965   -0.7459    0.0000 C.ar    1  LIG1       -0.0452
      8 C          -0.4119   -0.4910    0.0000 C.ar    1  LIG1        0.0145
      9 C           0.3025   -0.9035    0.0000 C.ar    1  LIG1        0.0141
     10 C           1.0170   -0.4910    0.0000 C.ar    1  LIG1        0.2676
     11 O           1.7315   -0.9035    0.0000 O.2     1  LIG1       -0.2662
     12 H           1.5238    1.8674    0.0000 H       1  LIG1        0.0474
     13 H           2.3525    0.4602   -0.9121 H       1  LIG1        0.0474
     14 H           2.3212    0.4747    0.9370 H       1  LIG1        0.0474
     15 H          -2.7830   -0.0785    0.0000 H       1  LIG1        0.0694
     16 H          -1.5368   -1.7935    0.0000 H       1  LIG1        0.0629
     17 H           0.3025   -2.0050    0.0000 H       1  LIG1        0.0679
@<TRIPOS>BOND
     1     1     2    1
     2     2     3   ar
     3     3     4   ar
     4     4     5   ar
     5     5     6   ar
     6     6     7   ar
     7     7     8   ar
     8     4     8   ar
     9     8     9   ar
    10     9    10   ar
    11     2    10   ar
    12    10    11    2
    13     1    12    1
    14     1    13    1
    15     1    14    1
    16     6    15    1
    17     7    16    1
    18     9    17    1
