@<TRIPOS>MOLECULE
Cn1c(=O)ncc2nscc12
 16 17 0 0 0
SMALL
GASTEIGER
Energy = 0

@<TRIPOS>ATOM
      1 C           0.4831   -1.4495    0.0000 C.3     1  LIG1        0.0168
      2 N           0.4831   -0.6245    0.0000 N.ar    1  LIG1       -0.2930
      3 C           1.1976   -0.2120    0.0000 C.ar    1  LIG1        0.3487
      4 O           1.9120   -0.6245    0.0000 O.2     1  LIG1       -0.2445
      5 N           1.1976    0.6130    0.0000 N.ar    1  LIG1       -0.1992
      6 C           0.4831    1.0255    0.0000 C.ar    1  LIG1        0.0610
      7 C          -0.2314    0.6130    0.0000 C.ar    1  LIG1        0.1146
      8 N          -1.0160    0.8679    0.0000 N.ar    1  LIG1       -0.2074
      9 S          -1.5009    0.2005    0.0000 S.2     1  LIG1        0.0060
     10 C          -1.0160   -0.4670    0.0000 C.ar    1  LIG1        0.0200
     11 C          -0.2314   -0.2120    0.0000 C.ar    1  LIG1        0.0814
     12 H           1.5577   -1.8300    0.0000 H       1  LIG1        0.0457
     13 H          -0.0754   -1.8442   -0.9121 H       1  LIG1        0.0457
     14 H          -0.0471   -1.8242    0.9370 H       1  LIG1        0.0457
     15 H           0.4831    2.1270    0.0000 H       1  LIG1        0.0854
     16 H          -1.3564   -1.5146    0.0000 H       1  LIG1        0.0730
@<TRIPOS>BOND
     1     1     2    1
     2     2     3   ar
     3     3     4    2
     4     3     5   ar
     5     5     6   ar
     6     6     7   ar
     7     7     8   ar
     8     8     9   ar
     9     9    10   ar
    10    10    11   ar
    11     2    11   ar
    12     7    11   ar
    13     1    12    1
    14     1    13    1
    15     1    14    1
    16     6    15    1
    17    10    16    1
