@<TRIPOS>MOLECULE
c1snc2ncncc12
 12 13 0 0 0
SMALL
GASTEIGER
Energy = 0

@<TRIPOS>ATOM
      1 S           1.2296    0.0161    0.0000 S.2     1  LIG1        0.0063
      2 C           0.7447    0.6835    0.0000 C.ar    1  LIG1        0.0065
      3 C          -0.0399    0.4286    0.0000 C.ar    1  LIG1        0.0458
      4 C          -0.7544    0.8411    0.0000 C.ar    1  LIG1        0.0406
      5 N          -1.4689    0.4286    0.0000 N.ar    1  LIG1       -0.2430
      6 C          -1.4689   -0.3964    0.0000 C.ar    1  LIG1        0.1183
      7 N          -0.7544   -0.8089    0.0000 N.ar    1  LIG1       -0.2154
      8 C          -0.0399   -0.3964    0.0000 C.ar    1  LIG1        0.1714
      9 N           0.7447   -0.6514    0.0000 N.ar    1  LIG1       -0.1905
     10 H           1.0851    1.7311    0.0000 H       1  LIG1        0.0716
     11 H          -0.7544    1.9426    0.0000 H       1  LIG1        0.0837
     12 H          -2.4228   -0.9472    0.0000 H       1  LIG1        0.1047
@<TRIPOS>BOND
     1     1     2   ar
     2     2     3   ar
     3     3     4   ar
     4     4     5   ar
     5     5     6   ar
     6     6     7   ar
     7     7     8   ar
     8     3     8   ar
     9     8     9   ar
    10     1     9   ar
    11     2    10    1
    12     4    11    1
    13     6    12    1
