@<TRIPOS>MOLECULE
O=c1[nH]c(=O)c2cnccc2[nH]1
 17 18 0 0 0
SMALL
GASTEIGER
Energy = 0

@<TRIPOS>ATOM
      1 O           1.8452   -0.9085    0.0000 O.2     1  LIG1       -0.2467
      2 C           1.1307   -0.4960    0.0000 C.ar    1  LIG1        0.3272
      3 N           1.1307    0.3290    0.0000 N.ar    1  LIG1       -0.2745
      4 C           0.4162    0.7415    0.0000 C.ar    1  LIG1        0.2632
      5 O           0.4162    1.5665    0.0000 O.2     1  LIG1       -0.2670
      6 C          -0.2982    0.3290    0.0000 C.ar    1  LIG1        0.0808
      7 C          -1.0127    0.7415    0.0000 C.ar    1  LIG1        0.0419
      8 N          -1.7272    0.3290    0.0000 N.ar    1  LIG1       -0.2624
      9 C          -1.7272   -0.4960    0.0000 C.ar    1  LIG1        0.0295
     10 C          -1.0127   -0.9085    0.0000 C.ar    1  LIG1       -0.0194
     11 C          -0.2982   -0.4960    0.0000 C.ar    1  LIG1        0.0585
     12 N           0.4162   -0.9085    0.0000 N.ar    1  LIG1       -0.3071
     13 H           2.0682    0.8703    0.0000 H       1  LIG1        0.1734
     14 H          -1.0127    1.8430    0.0000 H       1  LIG1        0.0838
     15 H          -2.6811   -1.0468    0.0000 H       1  LIG1        0.0830
     16 H          -1.0127   -2.0100    0.0000 H       1  LIG1        0.0653
     17 H           0.4162   -1.9910    0.0000 H       1  LIG1        0.1704
@<TRIPOS>BOND
     1     1     2    2
     2     2     3   ar
     3     3     4   ar
     4     4     5    2
     5     4     6   ar
     6     6     7   ar
     7     7     8   ar
     8     8     9   ar
     9     9    10   ar
    10    10    11   ar
    11     6    11   ar
    12    11    12   ar
    13     2    12   ar
    14     3    13    1
    15     7    14    1
    16     9    15    1
    17    10    16    1
    18    12    17    1
