@<TRIPOS>MOLECULE
Cn1cc2ccccc2nc1=O
 20 21 0 0 0
SMALL
GASTEIGER
Energy = 0

@<TRIPOS>ATOM
      1 C           1.7206    0.8520    0.0000 C.3     1  LIG1        0.0162
      2 N           1.0061    0.4395    0.0000 N.ar    1  LIG1       -0.3016
      3 C           0.2916    0.8520    0.0000 C.ar    1  LIG1        0.0182
      4 C          -0.4228    0.4395    0.0000 C.ar    1  LIG1        0.0168
      5 C          -1.1373    0.8520    0.0000 C.ar    1  LIG1       -0.0512
      6 C          -1.8518    0.4395    0.0000 C.ar    1  LIG1       -0.0610
      7 C          -1.8518   -0.3855    0.0000 C.ar    1  LIG1       -0.0597
      8 C          -1.1373   -0.7980    0.0000 C.ar    1  LIG1       -0.0355
      9 C          -0.4228   -0.3855    0.0000 C.ar    1  LIG1        0.0778
     10 N           0.2916   -0.7980    0.0000 N.ar    1  LIG1       -0.1929
     11 C           1.0061   -0.3855    0.0000 C.ar    1  LIG1        0.3487
     12 O           1.7206   -0.7980    0.0000 O.2     1  LIG1       -0.2445
     13 H           1.5129    1.9729    0.0000 H       1  LIG1        0.0457
     14 H           2.3416    0.5657   -0.9121 H       1  LIG1        0.0457
     15 H           2.3103    0.5802    0.9370 H       1  LIG1        0.0457
     16 H           0.2916    1.9535    0.0000 H       1  LIG1        0.0817
     17 H          -1.1373    1.9535    0.0000 H       1  LIG1        0.0625
     18 H          -2.8057    0.9903    0.0000 H       1  LIG1        0.0618
     19 H          -2.8057   -0.9363    0.0000 H       1  LIG1        0.0618
     20 H          -1.1373   -1.8995    0.0000 H       1  LIG1        0.0639
@<TRIPOS>BOND
     1     1     2    1
     2     2     3   ar
     3     3     4   ar
     4     4     5   ar
     5     5     6   ar
     6     6     7   ar
     7     7     8   ar
     8     8     9   ar
     9     4     9   ar
    10     9    10   ar
    11    10    11   ar
    12     2    11   ar
    13    11    12    2
    14     1    13    1
    15     1    14    1
    16     1    15    1
    17     3    16    1
    18     5    17    1
    19     6    18    1
    20     7    19    1
    21     8    20    1
