@<TRIPOS>MOLECULE
Cn1cc2ncsc2c1
 15 16 0 0 0
SMALL
GASTEIGER
Energy = 0

@<TRIPOS>ATOM
      1 C           2.0159   -0.0912    0.0000 C.3     1  LIG1        0.0114
      2 N           1.1909   -0.0912    0.0000 N.ar    1  LIG1       -0.3531
      3 C           0.7060    0.5762    0.0000 C.ar    1  LIG1        0.0202
      4 C          -0.0786    0.3213    0.0000 C.ar    1  LIG1        0.0564
      5 S          -0.8632    0.5762    0.0000 S.2     1  LIG1       -0.0739
      6 C          -1.3482   -0.0912    0.0000 C.ar    1  LIG1        0.0660
      7 N          -0.8632   -0.7587    0.0000 N.ar    1  LIG1       -0.2459
      8 C          -0.0786   -0.5037    0.0000 C.ar    1  LIG1        0.0956
      9 C           0.7060   -0.7587    0.0000 C.ar    1  LIG1        0.0308
     10 H           2.3964    0.9834    0.0000 H       1  LIG1        0.0455
     11 H           2.4106   -0.6497   -0.9121 H       1  LIG1        0.0455
     12 H           2.3906   -0.6214    0.9370 H       1  LIG1        0.0455
     13 H           1.0464    1.6238    0.0000 H       1  LIG1        0.0821
     14 H          -2.4497   -0.0912    0.0000 H       1  LIG1        0.0907
     15 H           1.0464   -1.8063    0.0000 H       1  LIG1        0.0831
@<TRIPOS>BOND
     1     1     2    1
     2     2     3   ar
     3     3     4   ar
     4     4     5   ar
     5     5     6   ar
     6     6     7   ar
     7     7     8   ar
     8     4     8   ar
     9     8     9   ar
    10     2     9   ar
    11     1    10    1
    12     1    11    1
    13     1    12    1
    14     3    13    1
    15     6    14    1
    16     9    15    1
