@<TRIPOS>MOLECULE
O=c1ncc2cnc(=O)[nH]c2[nH]1
 16 17 0 0 0
SMALL
GASTEIGER
Energy = 0

@<TRIPOS>ATOM
      1 O           2.1434    0.6498    0.0000 O.2     1  LIG1       -0.2447
      2 C           1.4289    0.2373    0.0000 C.ar    1  LIG1        0.3473
      3 N           0.7145    0.6498    0.0000 N.ar    1  LIG1       -0.2919
      4 C          -0.0000    0.2373    0.0000 C.ar    1  LIG1        0.1265
      5 C          -0.0000   -0.5877    0.0000 C.ar    1  LIG1        0.0520
      6 C           0.7145   -1.0002    0.0000 C.ar    1  LIG1        0.0450
      7 N           1.4289   -0.5877    0.0000 N.ar    1  LIG1       -0.2008
      8 C          -0.7145   -1.0002    0.0000 C.ar    1  LIG1        0.0450
      9 N          -1.4289   -0.5877    0.0000 N.ar    1  LIG1       -0.2008
     10 C          -1.4289    0.2373    0.0000 C.ar    1  LIG1        0.3473
     11 O          -2.1434    0.6498    0.0000 O.2     1  LIG1       -0.2447
     12 N          -0.7145    0.6498    0.0000 N.ar    1  LIG1       -0.2919
     13 H           0.7145    1.7323    0.0000 H       1  LIG1        0.1719
     14 H           0.7145   -2.1017    0.0000 H       1  LIG1        0.0839
     15 H          -0.7145   -2.1017    0.0000 H       1  LIG1        0.0839
     16 H          -0.7145    1.7323    0.0000 H       1  LIG1        0.1719
@<TRIPOS>BOND
     1     1     2    2
     2     2     3   ar
     3     3     4   ar
     4     4     5   ar
     5     5     6   ar
     6     6     7   ar
     7     2     7   ar
     8     5     8   ar
     9     8     9   ar
    10     9    10   ar
    11    10    11    2
    12    10    12   ar
    13     4    12   ar
    14     3    13    1
    15     6    14    1
    16     8    15    1
    17    12    16    1
