@<TRIPOS>MOLECULE
O=c1nc2ccncn2o1
 13 14 0 0 0
SMALL
GASTEIGER
Energy = 0

@<TRIPOS>ATOM
      1 O           1.9606   -0.0222    0.0000 O.2     1  LIG1       -0.2188
      2 C           1.1356   -0.0222    0.0000 C.ar    1  LIG1        0.4612
      3 O           0.6506    0.6452    0.0000 O.2     1  LIG1       -0.3117
      4 N          -0.1340    0.3903    0.0000 N.ar    1  LIG1       -0.1418
      5 C          -0.8485    0.8028    0.0000 C.ar    1  LIG1        0.1353
      6 N          -1.5629    0.3903    0.0000 N.ar    1  LIG1       -0.2421
      7 C          -1.5629   -0.4347    0.0000 C.ar    1  LIG1        0.0329
      8 C          -0.8485   -0.8472    0.0000 C.ar    1  LIG1        0.0023
      9 C          -0.1340   -0.4347    0.0000 C.ar    1  LIG1        0.1793
     10 N           0.6506   -0.6896    0.0000 N.ar    1  LIG1       -0.1530
     11 H          -0.8485    1.9043    0.0000 H       1  LIG1        0.1062
     12 H          -2.5168   -0.9854    0.0000 H       1  LIG1        0.0831
     13 H          -0.8485   -1.9487    0.0000 H       1  LIG1        0.0670
@<TRIPOS>BOND
     1     1     2    2
     2     2     3   ar
     3     3     4   ar
     4     4     5   ar
     5     5     6   ar
     6     6     7   ar
     7     7     8   ar
     8     8     9   ar
     9     4     9   ar
    10     9    10   ar
    11     2    10   ar
    12     5    11    1
    13     7    12    1
    14     8    13    1
