@<TRIPOS>MOLECULE
Cn1ccn2nccc12
 16 17 0 0 0
SMALL
GASTEIGER
Energy = 0

@<TRIPOS>ATOM
      1 C           0.9301   -1.3064    0.0000 C.3     1  LIG1        0.0133
      2 N           0.6752   -0.5218    0.0000 N.ar    1  LIG1       -0.3339
      3 C           1.1601    0.1457    0.0000 C.ar    1  LIG1        0.0243
      4 C           0.6752    0.8131    0.0000 C.ar    1  LIG1        0.0475
      5 N          -0.1094    0.5582    0.0000 N.ar    1  LIG1       -0.2221
      6 N          -0.8941    0.8131    0.0000 N.ar    1  LIG1       -0.1734
      7 C          -1.3790    0.1457    0.0000 C.ar    1  LIG1        0.0519
      8 C          -0.8941   -0.5218    0.0000 C.ar    1  LIG1        0.0006
      9 C          -0.1094   -0.2668    0.0000 C.ar    1  LIG1        0.1362
     10 H           2.0697   -1.3363    0.0000 H       1  LIG1        0.0456
     11 H           0.5209   -1.8543   -0.9121 H       1  LIG1        0.0456
     12 H           0.5416   -1.8266    0.9370 H       1  LIG1        0.0456
     13 H           2.2616    0.1457    0.0000 H       1  LIG1        0.0825
     14 H           1.0156    1.8607    0.0000 H       1  LIG1        0.0845
     15 H          -2.4805    0.1457    0.0000 H       1  LIG1        0.0848
     16 H          -1.2345   -1.5694    0.0000 H       1  LIG1        0.0670
@<TRIPOS>BOND
     1     1     2    1
     2     2     3   ar
     3     3     4   ar
     4     4     5   ar
     5     5     6   ar
     6     6     7   ar
     7     7     8   ar
     8     8     9   ar
     9     2     9   ar
    10     5     9   ar
    11     1    10    1
    12     1    11    1
    13     1    12    1
    14     3    13    1
    15     4    14    1
    16     7    15    1
    17     8    16    1
