@<TRIPOS>MOLECULE
c1nsc2ccccc12
 14 15 0 0 0
SMALL
GASTEIGER
Energy = 0

@<TRIPOS>ATOM
      1 S           0.7779   -0.5646    0.0000 S.2     1  LIG1        0.0116
      2 N           1.2628    0.1029    0.0000 N.ar    1  LIG1       -0.2176
      3 C           0.7779    0.7703    0.0000 C.ar    1  LIG1        0.0444
      4 C          -0.0067    0.5154    0.0000 C.ar    1  LIG1        0.0088
      5 C          -0.7212    0.9279    0.0000 C.ar    1  LIG1       -0.0520
      6 C          -1.4357    0.5154    0.0000 C.ar    1  LIG1       -0.0611
      7 C          -1.4357   -0.3096    0.0000 C.ar    1  LIG1       -0.0606
      8 C          -0.7212   -0.7221    0.0000 C.ar    1  LIG1       -0.0460
      9 C          -0.0067   -0.3096    0.0000 C.ar    1  LIG1        0.0393
     10 H           1.1183    1.8179    0.0000 H       1  LIG1        0.0843
     11 H          -0.7212    2.0294    0.0000 H       1  LIG1        0.0624
     12 H          -2.3896    1.0662    0.0000 H       1  LIG1        0.0618
     13 H          -2.3896   -0.8604    0.0000 H       1  LIG1        0.0618
     14 H          -0.7212   -1.8236    0.0000 H       1  LIG1        0.0629
@<TRIPOS>BOND
     1     1     2   ar
     2     2     3   ar
     3     3     4   ar
     4     4     5   ar
     5     5     6   ar
     6     6     7   ar
     7     7     8   ar
     8     8     9   ar
     9     1     9   ar
    10     4     9   ar
    11     3    10    1
    12     5    11    1
    13     6    12    1
    14     7    13    1
    15     8    14    1
