@<TRIPOS>MOLECULE
c1ncon1
 7 7 0 0 0
SMALL
GASTEIGER
Energy = 0

@<TRIPOS>ATOM
      1 O          -0.2002   -0.6404    0.0000 O.2     1  LIG1       -0.3417
      2 C           0.5844   -0.3855    0.0000 C.ar    1  LIG1        0.2141
      3 N           0.5844    0.4395    0.0000 N.ar    1  LIG1       -0.2024
      4 C          -0.2002    0.6945    0.0000 C.ar    1  LIG1        0.1586
      5 N          -0.6851    0.0270    0.0000 N.ar    1  LIG1       -0.0651
      6 H           1.4755   -1.0330    0.0000 H       1  LIG1        0.1283
      7 H          -0.5406    1.7421    0.0000 H       1  LIG1        0.1082
@<TRIPOS>BOND
     1     1     2   ar
     2     2     3   ar
     3     3     4   ar
     4     4     5   ar
     5     1     5   ar
     6     2     6    1
     7     4     7    1
