@<TRIPOS>MOLECULE
O=c1[nH]ccc2nccnc12
 16 17 0 0 0
SMALL
GASTEIGER
Energy = 0

@<TRIPOS>ATOM
      1 O           0.6340   -1.4584    0.0000 O.2     1  LIG1       -0.2655
      2 C           0.6340   -0.6334    0.0000 C.ar    1  LIG1        0.2763
      3 N           1.3485   -0.2209    0.0000 N.ar    1  LIG1       -0.3272
      4 C           1.3485    0.6041    0.0000 C.ar    1  LIG1        0.0071
      5 C           0.6340    1.0166    0.0000 C.ar    1  LIG1       -0.0180
      6 C          -0.0804    0.6041    0.0000 C.ar    1  LIG1        0.0958
      7 N          -0.7949    1.0166    0.0000 N.ar    1  LIG1       -0.2517
      8 C          -1.5094    0.6041    0.0000 C.ar    1  LIG1        0.0464
      9 C          -1.5094   -0.2209    0.0000 C.ar    1  LIG1        0.0466
     10 N          -0.7949   -0.6334    0.0000 N.ar    1  LIG1       -0.2465
     11 C          -0.0804   -0.2209    0.0000 C.ar    1  LIG1        0.1532
     12 H           2.2860   -0.7622    0.0000 H       1  LIG1        0.1684
     13 H           2.3024    1.1549    0.0000 H       1  LIG1        0.0808
     14 H           0.6340    2.1181    0.0000 H       1  LIG1        0.0654
     15 H          -2.4633    1.1549    0.0000 H       1  LIG1        0.0845
     16 H          -2.4633   -0.7717    0.0000 H       1  LIG1        0.0845
@<TRIPOS>BOND
     1     1     2    2
     2     2     3   ar
     3     3     4   ar
     4     4     5   ar
     5     5     6   ar
     6     6     7   ar
     7     7     8   ar
     8     8     9   ar
     9     9    10   ar
    10    10    11   ar
    11     2    11   ar
    12     6    11   ar
    13     3    12    1
    14     4    13    1
    15     5    14    1
    16     8    15    1
    17     9    16    1
