@<TRIPOS>MOLECULE
Cn1ccoc1=O
 12 12 0 0 0
SMALL
GASTEIGER
Energy = 0

@<TRIPOS>ATOM
      1 C          -0.1380   -1.2808    0.0000 C.3     1  LIG1        0.0177
      2 N           0.1169   -0.4961    0.0000 N.ar    1  LIG1       -0.2844
      3 C           0.9015   -0.2412    0.0000 C.ar    1  LIG1        0.0455
      4 C           0.9015    0.5838    0.0000 C.ar    1  LIG1        0.1137
      5 O           0.1169    0.8387    0.0000 O.2     1  LIG1       -0.4159
      6 C          -0.3680    0.1713    0.0000 C.ar    1  LIG1        0.4200
      7 O          -1.1930    0.1713    0.0000 O.2     1  LIG1       -0.2227
      8 H           0.7665   -1.9747    0.0000 H       1  LIG1        0.0458
      9 H          -0.7911   -1.4836   -0.9121 H       1  LIG1        0.0458
     10 H          -0.7581   -1.4734    0.9370 H       1  LIG1        0.0458
     11 H           1.7926   -0.8887    0.0000 H       1  LIG1        0.0842
     12 H           1.7926    1.2313    0.0000 H       1  LIG1        0.1046
@<TRIPOS>BOND
     1     1     2    1
     2     2     3   ar
     3     3     4   ar
     4     4     5   ar
     5     5     6   ar
     6     2     6   ar
     7     6     7    2
     8     1     8    1
     9     1     9    1
    10     1    10    1
    11     3    11    1
    12     4    12    1
