@<TRIPOS>MOLECULE
Cn1ccc2nccc(=O)n12
 18 19 0 0 0
SMALL
GASTEIGER
Energy = 0

@<TRIPOS>ATOM
      1 C           1.1535   -1.1400    0.0000 C.3     1  LIG1        0.0289
      2 N           0.8986   -0.3553    0.0000 N.ar    1  LIG1       -0.2857
      3 C           1.3835    0.3121    0.0000 C.ar    1  LIG1        0.0259
      4 C           0.8986    0.9795    0.0000 C.ar    1  LIG1        0.0003
      5 C           0.1140    0.7246    0.0000 C.ar    1  LIG1        0.1573
      6 N          -0.6005    1.1371    0.0000 N.ar    1  LIG1       -0.2359
      7 C          -1.3150    0.7246    0.0000 C.ar    1  LIG1        0.0351
      8 C          -1.3150   -0.1004    0.0000 C.ar    1  LIG1        0.0228
      9 C          -0.6005   -0.5129    0.0000 C.ar    1  LIG1        0.2731
     10 O          -0.6005   -1.3379    0.0000 O.2     1  LIG1       -0.2658
     11 N           0.1140   -0.1004    0.0000 N.ar    1  LIG1       -0.1991
     12 H           2.2931   -1.1699    0.0000 H       1  LIG1        0.0472
     13 H           0.7443   -1.6879   -0.9121 H       1  LIG1        0.0472
     14 H           0.7650   -1.6602    0.9370 H       1  LIG1        0.0472
     15 H           2.4850    0.3121    0.0000 H       1  LIG1        0.0826
     16 H           1.2390    2.0271    0.0000 H       1  LIG1        0.0670
     17 H          -2.2689    1.2754    0.0000 H       1  LIG1        0.0832
     18 H          -2.2689   -0.6512    0.0000 H       1  LIG1        0.0687
@<TRIPOS>BOND
     1     1     2    1
     2     2     3   ar
     3     3     4   ar
     4     4     5   ar
     5     5     6   ar
     6     6     7   ar
     7     7     8   ar
     8     8     9   ar
     9     9    10    2
    10     9    11   ar
    11     2    11   ar
    12     5    11   ar
    13     1    12    1
    14     1    13    1
    15     1    14    1
    16     3    15    1
    17     4    16    1
    18     7    17    1
    19     8    18    1
