@<TRIPOS>MOLECULE
O=c1nc[nH]c2cnoc12
 13 14 0 0 0
SMALL
GASTEIGER
Energy = 0

@<TRIPOS>ATOM
      1 O          -0.5098   -1.4394    0.0000 O.2     1  LIG1       -0.2616
      2 C          -0.5098   -0.6144    0.0000 C.ar    1  LIG1        0.3187
      3 N          -1.2243   -0.2019    0.0000 N.ar    1  LIG1       -0.1963
      4 C          -1.2243    0.6231    0.0000 C.ar    1  LIG1        0.0979
      5 N          -0.5098    1.0356    0.0000 N.ar    1  LIG1       -0.3416
      6 C           0.2046    0.6231    0.0000 C.ar    1  LIG1        0.1128
      7 C           0.2046   -0.2019    0.0000 C.ar    1  LIG1        0.2490
      8 O           0.9893   -0.4568    0.0000 O.2     1  LIG1       -0.3475
      9 N           1.4742    0.2106    0.0000 N.ar    1  LIG1       -0.0837
     10 C           0.9893    0.8781    0.0000 C.ar    1  LIG1        0.0942
     11 H          -2.1782    1.1739    0.0000 H       1  LIG1        0.1028
     12 H          -0.5098    2.1181    0.0000 H       1  LIG1        0.1669
     13 H           1.3297    1.9257    0.0000 H       1  LIG1        0.0885
@<TRIPOS>BOND
     1     1     2    2
     2     2     3   ar
     3     3     4   ar
     4     4     5   ar
     5     5     6   ar
     6     6     7   ar
     7     2     7   ar
     8     7     8   ar
     9     8     9   ar
    10     9    10   ar
    11     6    10   ar
    12     4    11    1
    13     5    12    1
    14    10    13    1
