@<TRIPOS>MOLECULE
O=c1cc2ccccc2c[nH]1
 18 19 0 0 0
SMALL
GASTEIGER
Energy = 0

@<TRIPOS>ATOM
      1 O           1.8744   -0.7354    0.0000 O.2     1  LIG1       -0.2679
      2 C           1.1600   -0.3229    0.0000 C.ar    1  LIG1        0.2493
      3 N           1.1600    0.5021    0.0000 N.ar    1  LIG1       -0.3285
      4 C           0.4455    0.9146    0.0000 C.ar    1  LIG1        0.0126
      5 C          -0.2690    0.5021    0.0000 C.ar    1  LIG1       -0.0017
      6 C          -0.9834    0.9146    0.0000 C.ar    1  LIG1       -0.0526
      7 C          -1.6979    0.5021    0.0000 C.ar    1  LIG1       -0.0611
      8 C          -1.6979   -0.3229    0.0000 C.ar    1  LIG1       -0.0612
      9 C          -0.9834   -0.7354    0.0000 C.ar    1  LIG1       -0.0538
     10 C          -0.2690   -0.3229    0.0000 C.ar    1  LIG1       -0.0114
     11 C           0.4455   -0.7354    0.0000 C.ar    1  LIG1        0.0105
     12 H           2.0975    1.0434    0.0000 H       1  LIG1        0.1683
     13 H           0.4455    2.0161    0.0000 H       1  LIG1        0.0814
     14 H          -0.9834    2.0161    0.0000 H       1  LIG1        0.0624
     15 H          -2.6518    1.0529    0.0000 H       1  LIG1        0.0618
     16 H          -2.6518   -0.8737    0.0000 H       1  LIG1        0.0618
     17 H          -0.9834   -1.8369    0.0000 H       1  LIG1        0.0624
     18 H           0.4455   -1.8369    0.0000 H       1  LIG1        0.0678
@<TRIPOS>BOND
     1     1     2    2
     2     2     3   ar
     3     3     4   ar
     4     4     5   ar
     5     5     6   ar
     6     6     7   ar
     7     7     8   ar
     8     8     9   ar
     9     9    10   ar
    10     5    10   ar
    11    10    11   ar
    12     2    11   ar
    13     3    12    1
    14     4    13    1
    15     6    14    1
    16     7    15    1
    17     8    16    1
    18     9    17    1
    19    11    18    1
