@<TRIPOS>MOLECULE
c1nc2nnncc2o1
 11 12 0 0 0
SMALL
GASTEIGER
Energy = 0

@<TRIPOS>ATOM
      1 O           0.9497   -0.6701    0.0000 O.2     1  LIG1       -0.4392
      2 C           1.4347   -0.0026    0.0000 C.ar    1  LIG1        0.1848
      3 N           0.9497    0.6648    0.0000 N.ar    1  LIG1       -0.1949
      4 C           0.1651    0.4099    0.0000 C.ar    1  LIG1        0.2232
      5 N          -0.5493    0.8224    0.0000 N.ar    1  LIG1       -0.1059
      6 N          -1.2638    0.4099    0.0000 N.ar    1  LIG1       -0.0411
      7 N          -1.2638   -0.4151    0.0000 N.ar    1  LIG1       -0.1339
      8 C          -0.5493   -0.8276    0.0000 C.ar    1  LIG1        0.0976
      9 C           0.1651   -0.4151    0.0000 C.ar    1  LIG1        0.1952
     10 H           2.5362   -0.0026    0.0000 H       1  LIG1        0.1255
     11 H          -0.5493   -1.9291    0.0000 H       1  LIG1        0.0887
@<TRIPOS>BOND
     1     1     2   ar
     2     2     3   ar
     3     3     4   ar
     4     4     5   ar
     5     5     6   ar
     6     6     7   ar
     7     7     8   ar
     8     8     9   ar
     9     1     9   ar
    10     4     9   ar
    11     2    10    1
    12     8    11    1
