@<TRIPOS>MOLECULE
O=c1ccn2ocnc2n1
 13 14 0 0 0
SMALL
GASTEIGER
Energy = 0

@<TRIPOS>ATOM
      1 O           1.7823   -0.7303    0.0000 O.2     1  LIG1       -0.2657
      2 C           1.0678   -0.3178    0.0000 C.ar    1  LIG1        0.2748
      3 C           1.0678    0.5072    0.0000 C.ar    1  LIG1        0.0243
      4 C           0.3534    0.9197    0.0000 C.ar    1  LIG1        0.0539
      5 N          -0.3611    0.5072    0.0000 N.ar    1  LIG1       -0.1452
      6 O          -1.1457    0.7621    0.0000 O.2     1  LIG1       -0.3582
      7 C          -1.6307    0.0947    0.0000 C.ar    1  LIG1        0.2139
      8 N          -1.1457   -0.5728    0.0000 N.ar    1  LIG1       -0.1790
      9 C          -0.3611   -0.3178    0.0000 C.ar    1  LIG1        0.2701
     10 N           0.3534   -0.7303    0.0000 N.ar    1  LIG1       -0.1707
     11 H           2.0217    1.0579    0.0000 H       1  LIG1        0.0688
     12 H           0.3534    2.0212    0.0000 H       1  LIG1        0.0847
     13 H          -2.7322    0.0947    0.0000 H       1  LIG1        0.1283
@<TRIPOS>BOND
     1     1     2    2
     2     2     3   ar
     3     3     4   ar
     4     4     5   ar
     5     5     6   ar
     6     6     7   ar
     7     7     8   ar
     8     8     9   ar
     9     5     9   ar
    10     9    10   ar
    11     2    10   ar
    12     3    11    1
    13     4    12    1
    14     7    13    1
