@<TRIPOS>MOLECULE
Cn1ccc2[nH]c(=O)cnc12
 18 19 0 0 0
SMALL
GASTEIGER
Energy = 0

@<TRIPOS>ATOM
      1 C           1.3245   -1.4128    0.0000 C.3     1  LIG1        0.0133
      2 N           1.0695   -0.6282    0.0000 N.ar    1  LIG1       -0.3337
      3 C           1.5545    0.0392    0.0000 C.ar    1  LIG1        0.0082
      4 C           1.0695    0.7067    0.0000 C.ar    1  LIG1       -0.0185
      5 C           0.2849    0.4517    0.0000 C.ar    1  LIG1        0.0863
      6 C           0.2849   -0.3733    0.0000 C.ar    1  LIG1        0.1571
      7 N          -0.4296   -0.7858    0.0000 N.ar    1  LIG1       -0.2305
      8 C          -1.1440   -0.3733    0.0000 C.ar    1  LIG1        0.0942
      9 C          -1.1440    0.4517    0.0000 C.ar    1  LIG1        0.2675
     10 O          -1.8585    0.8642    0.0000 O.2     1  LIG1       -0.2662
     11 N          -0.4296    0.8642    0.0000 N.ar    1  LIG1       -0.3184
     12 H           2.4641   -1.4426    0.0000 H       1  LIG1        0.0456
     13 H           0.9154   -1.9608   -0.9121 H       1  LIG1        0.0456
     14 H           0.9360   -1.9331    0.9370 H       1  LIG1        0.0456
     15 H           2.6560    0.0392    0.0000 H       1  LIG1        0.0810
     16 H           1.4098    1.7543    0.0000 H       1  LIG1        0.0654
     17 H          -2.0979   -0.9240    0.0000 H       1  LIG1        0.0886
     18 H          -0.4296    1.9467    0.0000 H       1  LIG1        0.1690
@<TRIPOS>BOND
     1     1     2    1
     2     2     3   ar
     3     3     4   ar
     4     4     5   ar
     5     5     6   ar
     6     2     6   ar
     7     6     7   ar
     8     7     8   ar
     9     8     9   ar
    10     9    10    2
    11     9    11   ar
    12     5    11   ar
    13     1    12    1
    14     1    13    1
    15     1    14    1
    16     3    15    1
    17     4    16    1
    18     8    17    1
    19    11    18    1
