@<TRIPOS>MOLECULE
O=c1ncnc2ncccn12
 15 16 0 0 0
SMALL
GASTEIGER
Energy = 0

@<TRIPOS>ATOM
      1 O           0.6153   -1.4782    0.0000 O.2     1  LIG1       -0.2440
      2 C           0.6153   -0.6532    0.0000 C.ar    1  LIG1        0.3565
      3 N           1.3298   -0.2407    0.0000 N.ar    1  LIG1       -0.1811
      4 C           1.3298    0.5843    0.0000 C.ar    1  LIG1        0.1252
      5 N           0.6153    0.9968    0.0000 N.ar    1  LIG1       -0.2001
      6 C          -0.0991    0.5843    0.0000 C.ar    1  LIG1        0.2400
      7 N          -0.8136    0.9968    0.0000 N.ar    1  LIG1       -0.2201
      8 C          -1.5281    0.5843    0.0000 C.ar    1  LIG1        0.0328
      9 C          -1.5281   -0.2407    0.0000 C.ar    1  LIG1       -0.0267
     10 C          -0.8136   -0.6532    0.0000 C.ar    1  LIG1        0.0189
     11 N          -0.0991   -0.2407    0.0000 N.ar    1  LIG1       -0.2359
     12 H           2.2837    1.1351    0.0000 H       1  LIG1        0.1050
     13 H          -2.4820    1.1351    0.0000 H       1  LIG1        0.0831
     14 H          -2.4820   -0.7915    0.0000 H       1  LIG1        0.0647
     15 H          -0.8136   -1.7547    0.0000 H       1  LIG1        0.0816
@<TRIPOS>BOND
     1     1     2    2
     2     2     3   ar
     3     3     4   ar
     4     4     5   ar
     5     5     6   ar
     6     6     7   ar
     7     7     8   ar
     8     8     9   ar
     9     9    10   ar
    10    10    11   ar
    11     2    11   ar
    12     6    11   ar
    13     4    12    1
    14     8    13    1
    15     9    14    1
    16    10    15    1
