@<TRIPOS>MOLECULE
O=c1cc[nH]n2cccc12
 16 17 0 0 0
SMALL
GASTEIGER
Energy = 0

@<TRIPOS>ATOM
      1 O           0.4783   -1.4632    0.0000 O.2     1  LIG1       -0.2856
      2 C           0.4783   -0.6382    0.0000 C.ar    1  LIG1        0.2055
      3 C           1.1928   -0.2257    0.0000 C.ar    1  LIG1        0.0046
      4 C           1.1928    0.5993    0.0000 C.ar    1  LIG1        0.0230
      5 N           0.4783    1.0118    0.0000 N.ar    1  LIG1       -0.3002
      6 N          -0.2362    0.5993    0.0000 N.ar    1  LIG1       -0.2588
      7 C          -1.0208    0.8543    0.0000 C.ar    1  LIG1        0.0278
      8 C          -1.5057    0.1868    0.0000 C.ar    1  LIG1       -0.0415
      9 C          -1.0208   -0.4806    0.0000 C.ar    1  LIG1       -0.0312
     10 C          -0.2362   -0.2257    0.0000 C.ar    1  LIG1        0.1098
     11 H           2.1467   -0.7765    0.0000 H       1  LIG1        0.0671
     12 H           2.1467    1.1501    0.0000 H       1  LIG1        0.0824
     13 H           0.4783    2.0943    0.0000 H       1  LIG1        0.1866
     14 H          -1.3612    1.9019    0.0000 H       1  LIG1        0.0829
     15 H          -2.6072    0.1868    0.0000 H       1  LIG1        0.0633
     16 H          -1.3612   -1.5282    0.0000 H       1  LIG1        0.0640
@<TRIPOS>BOND
     1     1     2    2
     2     2     3   ar
     3     3     4   ar
     4     4     5   ar
     5     5     6   ar
     6     6     7   ar
     7     7     8   ar
     8     8     9   ar
     9     9    10   ar
    10     2    10   ar
    11     6    10   ar
    12     3    11    1
    13     4    12    1
    14     5    13    1
    15     7    14    1
    16     8    15    1
    17     9    16    1
