@<TRIPOS>MOLECULE
O=c1cnn2cnccc2n1
 15 16 0 0 0
SMALL
GASTEIGER
Energy = 0

@<TRIPOS>ATOM
      1 O           1.9054   -0.7448    0.0000 O.2     1  LIG1       -0.2641
      2 C           1.1909   -0.3323    0.0000 C.ar    1  LIG1        0.2920
      3 C           1.1909    0.4927    0.0000 C.ar    1  LIG1        0.1146
      4 N           0.4765    0.9052    0.0000 N.ar    1  LIG1       -0.1666
      5 N          -0.2380    0.4927    0.0000 N.ar    1  LIG1       -0.2034
      6 C          -0.9525    0.9052    0.0000 C.ar    1  LIG1        0.1197
      7 N          -1.6669    0.4927    0.0000 N.ar    1  LIG1       -0.2435
      8 C          -1.6669   -0.3323    0.0000 C.ar    1  LIG1        0.0328
      9 C          -0.9525   -0.7448    0.0000 C.ar    1  LIG1        0.0009
     10 C          -0.2380   -0.3323    0.0000 C.ar    1  LIG1        0.1610
     11 N           0.4765   -0.7448    0.0000 N.ar    1  LIG1       -0.1885
     12 H           2.1448    1.0434    0.0000 H       1  LIG1        0.0904
     13 H          -0.9525    2.0067    0.0000 H       1  LIG1        0.1048
     14 H          -2.6208   -0.8830    0.0000 H       1  LIG1        0.0831
     15 H          -0.9525   -1.8463    0.0000 H       1  LIG1        0.0670
@<TRIPOS>BOND
     1     1     2    2
     2     2     3   ar
     3     3     4   ar
     4     4     5   ar
     5     5     6   ar
     6     6     7   ar
     7     7     8   ar
     8     8     9   ar
     9     9    10   ar
    10     5    10   ar
    11    10    11   ar
    12     2    11   ar
    13     3    12    1
    14     6    13    1
    15     8    14    1
    16     9    15    1
