@<TRIPOS>MOLECULE
O=c1ocno1
 7 7 0 0 0
SMALL
GASTEIGER
Energy = 0

@<TRIPOS>ATOM
      1 O          -1.2359   -0.0096    0.0000 O.2     1  LIG1       -0.2005
      2 C          -0.4109   -0.0096    0.0000 C.ar    1  LIG1        0.5430
      3 O           0.0740   -0.6770    0.0000 O.2     1  LIG1       -0.3783
      4 C           0.8587   -0.4221    0.0000 C.ar    1  LIG1        0.2265
      5 N           0.8587    0.4029    0.0000 N.ar    1  LIG1       -0.0409
      6 O           0.0740    0.6579    0.0000 O.2     1  LIG1       -0.2788
      7 H           1.7498   -1.0696    0.0000 H       1  LIG1        0.1289
@<TRIPOS>BOND
     1     1     2    2
     2     2     3   ar
     3     3     4   ar
     4     4     5   ar
     5     5     6   ar
     6     2     6   ar
     7     4     7    1
