@<TRIPOS>MOLECULE
c1cc2cnncc2o1
 13 14 0 0 0
SMALL
GASTEIGER
Energy = 0

@<TRIPOS>ATOM
      1 O           0.9566   -0.6445    0.0000 O.2     1  LIG1       -0.4613
      2 C           1.4416    0.0229    0.0000 C.ar    1  LIG1        0.0933
      3 C           0.9566    0.6904    0.0000 C.ar    1  LIG1       -0.0146
      4 C           0.1720    0.4354    0.0000 C.ar    1  LIG1        0.0415
      5 C          -0.5425    0.8479    0.0000 C.ar    1  LIG1        0.0607
      6 N          -1.2569    0.4354    0.0000 N.ar    1  LIG1       -0.1569
      7 N          -1.2569   -0.3896    0.0000 N.ar    1  LIG1       -0.1540
      8 C          -0.5425   -0.8021    0.0000 C.ar    1  LIG1        0.0927
      9 C           0.1720   -0.3896    0.0000 C.ar    1  LIG1        0.1560
     10 H           2.5431    0.0229    0.0000 H       1  LIG1        0.1030
     11 H           1.2969    1.7380    0.0000 H       1  LIG1        0.0656
     12 H          -0.5425    1.9494    0.0000 H       1  LIG1        0.0855
     13 H          -0.5425   -1.9036    0.0000 H       1  LIG1        0.0886
@<TRIPOS>BOND
     1     1     2   ar
     2     2     3   ar
     3     3     4   ar
     4     4     5   ar
     5     5     6   ar
     6     6     7   ar
     7     7     8   ar
     8     8     9   ar
     9     1     9   ar
    10     4     9   ar
    11     2    10    1
    12     3    11    1
    13     5    12    1
    14     8    13    1
