@<TRIPOS>MOLECULE
c1noc2cnncc12
 12 13 0 0 0
SMALL
GASTEIGER
Energy = 0

@<TRIPOS>ATOM
      1 O           0.9323   -0.6449    0.0000 O.2     1  LIG1       -0.3530
      2 N           1.4172    0.0225    0.0000 N.ar    1  LIG1       -0.0854
      3 C           0.9323    0.6900    0.0000 C.ar    1  LIG1        0.0794
      4 C           0.1476    0.4350    0.0000 C.ar    1  LIG1        0.0624
      5 C          -0.5668    0.8475    0.0000 C.ar    1  LIG1        0.0623
      6 N          -1.2813    0.4350    0.0000 N.ar    1  LIG1       -0.1568
      7 N          -1.2813   -0.3900    0.0000 N.ar    1  LIG1       -0.1539
      8 C          -0.5668   -0.8025    0.0000 C.ar    1  LIG1        0.0954
      9 C           0.1476   -0.3900    0.0000 C.ar    1  LIG1        0.1884
     10 H           1.2727    1.7376    0.0000 H       1  LIG1        0.0871
     11 H          -0.5668    1.9490    0.0000 H       1  LIG1        0.0856
     12 H          -0.5668   -1.9040    0.0000 H       1  LIG1        0.0887
@<TRIPOS>BOND
     1     1     2   ar
     2     2     3   ar
     3     3     4   ar
     4     4     5   ar
     5     5     6   ar
     6     6     7   ar
     7     7     8   ar
     8     8     9   ar
     9     1     9   ar
    10     4     9   ar
    11     3    10    1
    12     5    11    1
    13     8    12    1
