@<TRIPOS>MOLECULE
Cn1ccc2cccn2c1=O
 19 20 0 0 0
SMALL
GASTEIGER
Energy = 0

@<TRIPOS>ATOM
      1 C           1.7336   -0.5541    0.0000 C.3     1  LIG1        0.0161
      2 N           1.0191   -0.1416    0.0000 N.ar    1  LIG1       -0.3032
      3 C           1.0191    0.6834    0.0000 C.ar    1  LIG1        0.0110
      4 C           0.3046    1.0959    0.0000 C.ar    1  LIG1       -0.0214
      5 C          -0.4098    0.6834    0.0000 C.ar    1  LIG1        0.0523
      6 C          -1.1945    0.9384    0.0000 C.ar    1  LIG1       -0.0363
      7 C          -1.6794    0.2709    0.0000 C.ar    1  LIG1       -0.0431
      8 C          -1.1945   -0.3965    0.0000 C.ar    1  LIG1        0.0147
      9 N          -0.4098   -0.1416    0.0000 N.ar    1  LIG1       -0.2694
     10 C           0.3046   -0.5541    0.0000 C.ar    1  LIG1        0.3334
     11 O           0.3046   -1.3791    0.0000 O.2     1  LIG1       -0.2460
     12 H           2.6004    0.1863    0.0000 H       1  LIG1        0.0457
     13 H           1.7962   -1.2351   -0.9121 H       1  LIG1        0.0457
     14 H           1.7930   -1.2007    0.9370 H       1  LIG1        0.0457
     15 H           1.9730    1.2342    0.0000 H       1  LIG1        0.0811
     16 H           0.3046    2.1974    0.0000 H       1  LIG1        0.0653
     17 H          -1.5349    1.9860    0.0000 H       1  LIG1        0.0639
     18 H          -2.7809    0.2709    0.0000 H       1  LIG1        0.0633
     19 H          -1.5349   -1.4441    0.0000 H       1  LIG1        0.0814
@<TRIPOS>BOND
     1     1     2    1
     2     2     3   ar
     3     3     4   ar
     4     4     5   ar
     5     5     6   ar
     6     6     7   ar
     7     7     8   ar
     8     8     9   ar
     9     5     9   ar
    10     9    10   ar
    11     2    10   ar
    12    10    11    2
    13     1    12    1
    14     1    13    1
    15     1    14    1
    16     3    15    1
    17     4    16    1
    18     6    17    1
    19     7    18    1
    20     8    19    1
