@<TRIPOS>MOLECULE
Cn1cnc2ccccc2c1=O
 20 21 0 0 0
SMALL
GASTEIGER
Energy = 0

@<TRIPOS>ATOM
      1 C           1.8709   -0.5917    0.0000 C.3     1  LIG1        0.0161
      2 N           1.1564   -0.1792    0.0000 N.ar    1  LIG1       -0.3019
      3 C           1.1564    0.6458    0.0000 C.ar    1  LIG1        0.0990
      4 N           0.4419    1.0583    0.0000 N.ar    1  LIG1       -0.2370
      5 C          -0.2725    0.6458    0.0000 C.ar    1  LIG1        0.0778
      6 C          -0.9870    1.0583    0.0000 C.ar    1  LIG1       -0.0355
      7 C          -1.7015    0.6458    0.0000 C.ar    1  LIG1       -0.0597
      8 C          -1.7015   -0.1792    0.0000 C.ar    1  LIG1       -0.0609
      9 C          -0.9870   -0.5917    0.0000 C.ar    1  LIG1       -0.0474
     10 C          -0.2725   -0.1792    0.0000 C.ar    1  LIG1        0.0649
     11 C           0.4419   -0.5917    0.0000 C.ar    1  LIG1        0.2614
     12 O           0.4419   -1.4167    0.0000 O.2     1  LIG1       -0.2670
     13 H           2.7377    0.1487    0.0000 H       1  LIG1        0.0457
     14 H           1.9335   -1.2727   -0.9121 H       1  LIG1        0.0457
     15 H           1.9303   -1.2383    0.9370 H       1  LIG1        0.0457
     16 H           2.1103    1.1966    0.0000 H       1  LIG1        0.1030
     17 H          -0.9870    2.1598    0.0000 H       1  LIG1        0.0639
     18 H          -2.6554    1.1966    0.0000 H       1  LIG1        0.0618
     19 H          -2.6554   -0.7300    0.0000 H       1  LIG1        0.0618
     20 H          -0.9870   -1.6932    0.0000 H       1  LIG1        0.0626
@<TRIPOS>BOND
     1     1     2    1
     2     2     3   ar
     3     3     4   ar
     4     4     5   ar
     5     5     6   ar
     6     6     7   ar
     7     7     8   ar
     8     8     9   ar
     9     9    10   ar
    10     5    10   ar
    11    10    11   ar
    12     2    11   ar
    13    11    12    2
    14     1    13    1
    15     1    14    1
    16     1    15    1
    17     3    16    1
    18     6    17    1
    19     7    18    1
    20     8    19    1
    21     9    20    1
