@<TRIPOS>MOLECULE
c1nnc2c[nH]ccc12
 14 15 0 0 0
SMALL
GASTEIGER
Energy = 0

@<TRIPOS>ATOM
      1 N           1.2874   -0.3936    0.0000 N.ar    1  LIG1       -0.3652
      2 C           1.2874    0.4314    0.0000 C.ar    1  LIG1        0.0023
      3 C           0.5730    0.8439    0.0000 C.ar    1  LIG1       -0.0350
      4 C          -0.1415    0.4314    0.0000 C.ar    1  LIG1        0.0247
      5 C          -0.9261    0.6863    0.0000 C.ar    1  LIG1        0.0592
      6 N          -1.4111    0.0189    0.0000 N.ar    1  LIG1       -0.1564
      7 N          -0.9261   -0.6485    0.0000 N.ar    1  LIG1       -0.1478
      8 C          -0.1415   -0.3936    0.0000 C.ar    1  LIG1        0.1106
      9 C           0.5730   -0.8061    0.0000 C.ar    1  LIG1        0.0297
     10 H           2.2249   -0.9348    0.0000 H       1  LIG1        0.1648
     11 H           2.2413    0.9821    0.0000 H       1  LIG1        0.0807
     12 H           0.5730    1.9454    0.0000 H       1  LIG1        0.0639
     13 H          -1.2664    1.7339    0.0000 H       1  LIG1        0.0855
     14 H           0.5730   -1.9076    0.0000 H       1  LIG1        0.0829
@<TRIPOS>BOND
     1     1     2   ar
     2     2     3   ar
     3     3     4   ar
     4     4     5   ar
     5     5     6   ar
     6     6     7   ar
     7     7     8   ar
     8     4     8   ar
     9     8     9   ar
    10     1     9   ar
    11     1    10    1
    12     2    11    1
    13     3    12    1
    14     5    13    1
    15     9    14    1
