@<TRIPOS>MOLECULE
Cn1c(=O)ccc2ncoc12
 17 18 0 0 0
SMALL
GASTEIGER
Energy = 0

@<TRIPOS>ATOM
      1 C          -0.3189   -1.4002    0.0000 C.3     1  LIG1        0.0181
      2 N          -0.3189   -0.5752    0.0000 N.ar    1  LIG1       -0.2806
      3 C          -1.0334   -0.1627    0.0000 C.ar    1  LIG1        0.2538
      4 O          -1.7478   -0.5752    0.0000 O.2     1  LIG1       -0.2676
      5 C          -1.0334    0.6623    0.0000 C.ar    1  LIG1        0.0052
      6 C          -0.3189    1.0748    0.0000 C.ar    1  LIG1       -0.0259
      7 C           0.3956    0.6623    0.0000 C.ar    1  LIG1        0.1274
      8 C           0.3956   -0.1627    0.0000 C.ar    1  LIG1        0.2309
      9 O           1.1802   -0.4176    0.0000 O.2     1  LIG1       -0.4260
     10 C           1.6651    0.2498    0.0000 C.ar    1  LIG1        0.1850
     11 N           1.1802    0.9172    0.0000 N.ar    1  LIG1       -0.2145
     12 H          -1.3935   -1.7807    0.0000 H       1  LIG1        0.0458
     13 H           0.2396   -1.7949    0.9121 H       1  LIG1        0.0458
     14 H           0.2113   -1.7749   -0.9370 H       1  LIG1        0.0458
     15 H          -1.9873    1.2131    0.0000 H       1  LIG1        0.0672
     16 H          -0.3189    2.1763    0.0000 H       1  LIG1        0.0642
     17 H           2.7666    0.2498    0.0000 H       1  LIG1        0.1256
@<TRIPOS>BOND
     1     1     2    1
     2     2     3   ar
     3     3     4    2
     4     3     5   ar
     5     5     6   ar
     6     6     7   ar
     7     7     8   ar
     8     2     8   ar
     9     8     9   ar
    10     9    10   ar
    11    10    11   ar
    12     7    11   ar
    13     1    12    1
    14     1    13    1
    15     1    14    1
    16     5    15    1
    17     6    16    1
    18    10    17    1
