@<TRIPOS>MOLECULE
O=c1[nH]ncc2sncc12
 13 14 0 0 0
SMALL
GASTEIGER
Energy = 0

@<TRIPOS>ATOM
      1 O          -0.6062   -1.5633    0.0000 O.2     1  LIG1       -0.2657
      2 C          -0.6062   -0.7383    0.0000 C.ar    1  LIG1        0.2745
      3 N          -1.3207   -0.3258    0.0000 N.ar    1  LIG1       -0.2426
      4 N          -1.3207    0.4992    0.0000 N.ar    1  LIG1       -0.1782
      5 C          -0.6062    0.9117    0.0000 C.ar    1  LIG1        0.0637
      6 C           0.1083    0.4992    0.0000 C.ar    1  LIG1        0.0642
      7 C           0.1083   -0.3258    0.0000 C.ar    1  LIG1        0.0759
      8 C           0.8929   -0.5808    0.0000 C.ar    1  LIG1        0.0497
      9 N           1.3778    0.0867    0.0000 N.ar    1  LIG1       -0.2173
     10 S           0.8929    0.7541    0.0000 S.2     1  LIG1        0.0133
     11 H          -2.2582   -0.8671    0.0000 H       1  LIG1        0.1921
     12 H          -0.6062    2.0132    0.0000 H       1  LIG1        0.0859
     13 H           1.2333   -1.6284    0.0000 H       1  LIG1        0.0844
@<TRIPOS>BOND
     1     1     2    2
     2     2     3   ar
     3     3     4   ar
     4     4     5   ar
     5     5     6   ar
     6     6     7   ar
     7     2     7   ar
     8     7     8   ar
     9     8     9   ar
    10     9    10   ar
    11     6    10   ar
    12     3    11    1
    13     5    12    1
    14     8    13    1
