@<TRIPOS>MOLECULE
c1noc2cncnc12
 12 13 0 0 0
SMALL
GASTEIGER
Energy = 0

@<TRIPOS>ATOM
      1 O           0.9202   -0.6519    0.0000 O.2     1  LIG1       -0.3515
      2 N           1.4051    0.0156    0.0000 N.ar    1  LIG1       -0.0838
      3 C           0.9202    0.6830    0.0000 C.ar    1  LIG1        0.0961
      4 C           0.1356    0.4281    0.0000 C.ar    1  LIG1        0.1330
      5 N          -0.5789    0.8406    0.0000 N.ar    1  LIG1       -0.2306
      6 C          -1.2934    0.4281    0.0000 C.ar    1  LIG1        0.1169
      7 N          -1.2934   -0.3969    0.0000 N.ar    1  LIG1       -0.2399
      8 C          -0.5789   -0.8094    0.0000 C.ar    1  LIG1        0.0763
      9 C           0.1356   -0.3969    0.0000 C.ar    1  LIG1        0.2033
     10 H           1.2606    1.7306    0.0000 H       1  LIG1        0.0886
     11 H          -2.2473    0.9789    0.0000 H       1  LIG1        0.1047
     12 H          -0.5789   -1.9109    0.0000 H       1  LIG1        0.0869
@<TRIPOS>BOND
     1     1     2   ar
     2     2     3   ar
     3     3     4   ar
     4     4     5   ar
     5     5     6   ar
     6     6     7   ar
     7     7     8   ar
     8     8     9   ar
     9     1     9   ar
    10     4     9   ar
    11     3    10    1
    12     6    11    1
    13     8    12    1
