@<TRIPOS>MOLECULE
c1cc2cncn2[nH]1
 13 14 0 0 0
SMALL
GASTEIGER
Energy = 0

@<TRIPOS>ATOM
      1 N           0.7941   -0.6463    0.0000 N.ar    1  LIG1       -0.2990
      2 C           1.2790    0.0211    0.0000 C.ar    1  LIG1        0.0214
      3 C           0.7941    0.6886    0.0000 C.ar    1  LIG1       -0.0173
      4 C           0.0095    0.4336    0.0000 C.ar    1  LIG1        0.0844
      5 C          -0.7751    0.6886    0.0000 C.ar    1  LIG1        0.0547
      6 N          -1.2601    0.0211    0.0000 N.ar    1  LIG1       -0.2416
      7 C          -0.7751   -0.6463    0.0000 C.ar    1  LIG1        0.1160
      8 N           0.0095   -0.3914    0.0000 N.ar    1  LIG1       -0.2428
      9 H           1.1286   -1.6758    0.0000 H       1  LIG1        0.1867
     10 H           2.3805    0.0211    0.0000 H       1  LIG1        0.0823
     11 H           1.1345    1.7362    0.0000 H       1  LIG1        0.0654
     12 H          -1.1154    1.7362    0.0000 H       1  LIG1        0.0852
     13 H          -1.1154   -1.6939    0.0000 H       1  LIG1        0.1047
@<TRIPOS>BOND
     1     1     2   ar
     2     2     3   ar
     3     3     4   ar
     4     4     5   ar
     5     5     6   ar
     6     6     7   ar
     7     7     8   ar
     8     1     8   ar
     9     4     8   ar
    10     1     9    1
    11     2    10    1
    12     3    11    1
    13     5    12    1
    14     7    13    1
