@<TRIPOS>MOLECULE
O=c1nccc2nc[nH]n12
 14 15 0 0 0
SMALL
GASTEIGER
Energy = 0

@<TRIPOS>ATOM
      1 O           0.4984   -1.4377    0.0000 O.2     1  LIG1       -0.2426
      2 C           0.4984   -0.6127    0.0000 C.ar    1  LIG1        0.3689
      3 N           1.2128   -0.2002    0.0000 N.ar    1  LIG1       -0.1998
      4 C           1.2128    0.6248    0.0000 C.ar    1  LIG1        0.0366
      5 C           0.4984    1.0373    0.0000 C.ar    1  LIG1        0.0010
      6 C          -0.2161    0.6248    0.0000 C.ar    1  LIG1        0.1603
      7 N          -1.0007    0.8798    0.0000 N.ar    1  LIG1       -0.2171
      8 C          -1.4856    0.2123    0.0000 C.ar    1  LIG1        0.1107
      9 N          -1.0007   -0.4551    0.0000 N.ar    1  LIG1       -0.2771
     10 N          -0.2161   -0.2002    0.0000 N.ar    1  LIG1       -0.1837
     11 H           2.1667    1.1755    0.0000 H       1  LIG1        0.0832
     12 H           0.4984    2.1388    0.0000 H       1  LIG1        0.0670
     13 H          -2.5871    0.2123    0.0000 H       1  LIG1        0.1041
     14 H          -1.3352   -1.4846    0.0000 H       1  LIG1        0.1885
@<TRIPOS>BOND
     1     1     2    2
     2     2     3   ar
     3     3     4   ar
     4     4     5   ar
     5     5     6   ar
     6     6     7   ar
     7     7     8   ar
     8     8     9   ar
     9     9    10   ar
    10     2    10   ar
    11     6    10   ar
    12     4    11    1
    13     5    12    1
    14     8    13    1
    15     9    14    1
