@<TRIPOS>MOLECULE
O=c1nc2c(=O)[nH]cnc2c[nH]1
 16 17 0 0 0
SMALL
GASTEIGER
Energy = 0

@<TRIPOS>ATOM
      1 O           2.0006   -0.5776    0.0000 O.2     1  LIG1       -0.2447
      2 C           1.2861   -0.1651    0.0000 C.ar    1  LIG1        0.3466
      3 N           1.2861    0.6599    0.0000 N.ar    1  LIG1       -0.3109
      4 C           0.5717    1.0724    0.0000 C.ar    1  LIG1        0.0341
      5 C          -0.1428    0.6599    0.0000 C.ar    1  LIG1        0.1123
      6 N          -0.8573    1.0724    0.0000 N.ar    1  LIG1       -0.2342
      7 C          -1.5718    0.6599    0.0000 C.ar    1  LIG1        0.0968
      8 N          -1.5718   -0.1651    0.0000 N.ar    1  LIG1       -0.3117
      9 C          -0.8573   -0.5776    0.0000 C.ar    1  LIG1        0.2776
     10 O          -0.8573   -1.4026    0.0000 O.2     1  LIG1       -0.2655
     11 C          -0.1428   -0.1651    0.0000 C.ar    1  LIG1        0.1600
     12 N           0.5717   -0.5776    0.0000 N.ar    1  LIG1       -0.1860
     13 H           2.2236    1.2011    0.0000 H       1  LIG1        0.1699
     14 H           0.5717    2.1739    0.0000 H       1  LIG1        0.0830
     15 H          -2.5257    1.2107    0.0000 H       1  LIG1        0.1028
     16 H          -2.5093   -0.7064    0.0000 H       1  LIG1        0.1698
@<TRIPOS>BOND
     1     1     2    2
     2     2     3   ar
     3     3     4   ar
     4     4     5   ar
     5     5     6   ar
     6     6     7   ar
     7     7     8   ar
     8     8     9   ar
     9     9    10    2
    10     9    11   ar
    11     5    11   ar
    12    11    12   ar
    13     2    12   ar
    14     3    13    1
    15     4    14    1
    16     7    15    1
    17     8    16    1
