@<TRIPOS>MOLECULE
Cn1c(=O)[nH]c2cc[nH]c2c1=O
 19 20 0 0 0
SMALL
GASTEIGER
Energy = 0

@<TRIPOS>ATOM
      1 C          -1.5642   -0.6756    0.0000 C.3     1  LIG1        0.0196
      2 N          -0.8497   -0.2631    0.0000 N.ar    1  LIG1       -0.2624
      3 C          -0.8497    0.5619    0.0000 C.ar    1  LIG1        0.3296
      4 O          -1.5642    0.9744    0.0000 O.2     1  LIG1       -0.2465
      5 N          -0.1352    0.9744    0.0000 N.ar    1  LIG1       -0.3057
      6 C           0.5792    0.5619    0.0000 C.ar    1  LIG1        0.0734
      7 C           0.5792   -0.2631    0.0000 C.ar    1  LIG1        0.1284
      8 N           1.3638   -0.5181    0.0000 N.ar    1  LIG1       -0.3553
      9 C           1.8488    0.1494    0.0000 C.ar    1  LIG1        0.0043
     10 C           1.3638    0.8168    0.0000 C.ar    1  LIG1       -0.0201
     11 C          -0.1352   -0.6756    0.0000 C.ar    1  LIG1        0.2803
     12 O          -0.1352   -1.5006    0.0000 O.2     1  LIG1       -0.2652
     13 H          -2.4310    0.0648    0.0000 H       1  LIG1        0.0458
     14 H          -1.6268   -1.3566    0.9121 H       1  LIG1        0.0458
     15 H          -1.6236   -1.3222   -0.9370 H       1  LIG1        0.0458
     16 H          -0.1352    2.0569    0.0000 H       1  LIG1        0.1705
     17 H           1.6983   -1.5476    0.0000 H       1  LIG1        0.1655
     18 H           2.9503    0.1494    0.0000 H       1  LIG1        0.0807
     19 H           1.7041    1.8644    0.0000 H       1  LIG1        0.0653
@<TRIPOS>BOND
     1     1     2    1
     2     2     3   ar
     3     3     4    2
     4     3     5   ar
     5     5     6   ar
     6     6     7   ar
     7     7     8   ar
     8     8     9   ar
     9     9    10   ar
    10     6    10   ar
    11     7    11   ar
    12     2    11   ar
    13    11    12    2
    14     1    13    1
    15     1    14    1
    16     1    15    1
    17     5    16    1
    18     8    17    1
    19     9    18    1
    20    10    19    1
