@<TRIPOS>MOLECULE
Cn1cnc2cnccc2c1=O
 19 20 0 0 0
SMALL
GASTEIGER
Energy = 0

@<TRIPOS>ATOM
      1 C           1.8929   -0.6001    0.0000 C.3     1  LIG1        0.0161
      2 N           1.1785   -0.1876    0.0000 N.ar    1  LIG1       -0.3019
      3 C           1.1785    0.6374    0.0000 C.ar    1  LIG1        0.0990
      4 N           0.4640    1.0499    0.0000 N.ar    1  LIG1       -0.2354
      5 C          -0.2505    0.6374    0.0000 C.ar    1  LIG1        0.0959
      6 C          -0.9650    1.0499    0.0000 C.ar    1  LIG1        0.0537
      7 N          -1.6794    0.6374    0.0000 N.ar    1  LIG1       -0.2611
      8 C          -1.6794   -0.1876    0.0000 C.ar    1  LIG1        0.0284
      9 C          -0.9650   -0.6001    0.0000 C.ar    1  LIG1       -0.0292
     10 C          -0.2505   -0.1876    0.0000 C.ar    1  LIG1        0.0678
     11 C           0.4640   -0.6001    0.0000 C.ar    1  LIG1        0.2615
     12 O           0.4640   -1.4251    0.0000 O.2     1  LIG1       -0.2669
     13 H           2.7598    0.1402    0.0000 H       1  LIG1        0.0457
     14 H           1.9554   -1.2811   -0.9121 H       1  LIG1        0.0457
     15 H           1.9523   -1.2467    0.9370 H       1  LIG1        0.0457
     16 H           2.1324    1.1882    0.0000 H       1  LIG1        0.1030
     17 H          -0.9650    2.1514    0.0000 H       1  LIG1        0.0851
     18 H          -2.6333   -0.7383    0.0000 H       1  LIG1        0.0830
     19 H          -0.9650   -1.7016    0.0000 H       1  LIG1        0.0641
@<TRIPOS>BOND
     1     1     2    1
     2     2     3   ar
     3     3     4   ar
     4     4     5   ar
     5     5     6   ar
     6     6     7   ar
     7     7     8   ar
     8     8     9   ar
     9     9    10   ar
    10     5    10   ar
    11    10    11   ar
    12     2    11   ar
    13    11    12    2
    14     1    13    1
    15     1    14    1
    16     1    15    1
    17     3    16    1
    18     6    17    1
    19     8    18    1
    20     9    19    1
