@<TRIPOS>MOLECULE
c1nc2nccnc2o1
 12 13 0 0 0
SMALL
GASTEIGER
Energy = 0

@<TRIPOS>ATOM
      1 O           0.9163   -0.6562    0.0000 O.2     1  LIG1       -0.4232
      2 C           1.4012    0.0113    0.0000 C.ar    1  LIG1        0.1866
      3 N           0.9163    0.6787    0.0000 N.ar    1  LIG1       -0.1950
      4 C           0.1317    0.4238    0.0000 C.ar    1  LIG1        0.2186
      5 N          -0.5828    0.8363    0.0000 N.ar    1  LIG1       -0.2302
      6 C          -1.2973    0.4238    0.0000 C.ar    1  LIG1        0.0483
      7 C          -1.2973   -0.4012    0.0000 C.ar    1  LIG1        0.0496
      8 N          -0.5828   -0.8137    0.0000 N.ar    1  LIG1       -0.2163
      9 C           0.1317   -0.4012    0.0000 C.ar    1  LIG1        0.2668
     10 H           2.5027    0.0113    0.0000 H       1  LIG1        0.1256
     11 H          -2.2512    0.9746    0.0000 H       1  LIG1        0.0846
     12 H          -2.2512   -0.9520    0.0000 H       1  LIG1        0.0846
@<TRIPOS>BOND
     1     1     2   ar
     2     2     3   ar
     3     3     4   ar
     4     4     5   ar
     5     5     6   ar
     6     6     7   ar
     7     7     8   ar
     8     8     9   ar
     9     1     9   ar
    10     4     9   ar
    11     2    10    1
    12     6    11    1
    13     7    12    1
