@<TRIPOS>MOLECULE
Cn1cnc(=O)c2cnoc12
 16 17 0 0 0
SMALL
GASTEIGER
Energy = 0

@<TRIPOS>ATOM
      1 C          -0.4679   -1.6712    0.0000 C.3     1  LIG1        0.0160
      2 N          -0.4679   -0.8462    0.0000 N.ar    1  LIG1       -0.3031
      3 C          -1.1824   -0.4337    0.0000 C.ar    1  LIG1        0.1023
      4 N          -1.1824    0.3913    0.0000 N.ar    1  LIG1       -0.1986
      5 C          -0.4679    0.8038    0.0000 C.ar    1  LIG1        0.2855
      6 O          -0.4679    1.6288    0.0000 O.2     1  LIG1       -0.2650
      7 C           0.2466    0.3913    0.0000 C.ar    1  LIG1        0.1249
      8 C           0.2466   -0.4337    0.0000 C.ar    1  LIG1        0.2455
      9 O           1.0312   -0.6886    0.0000 O.2     1  LIG1       -0.3360
     10 N           1.5161   -0.0212    0.0000 N.ar    1  LIG1       -0.0835
     11 C           1.0312    0.6462    0.0000 C.ar    1  LIG1        0.0847
     12 H          -1.5425   -2.0517    0.0000 H       1  LIG1        0.0457
     13 H           0.0906   -2.0659    0.9121 H       1  LIG1        0.0457
     14 H           0.0623   -2.0459   -0.9370 H       1  LIG1        0.0457
     15 H          -2.1363   -0.9845    0.0000 H       1  LIG1        0.1031
     16 H           1.3716    1.6938    0.0000 H       1  LIG1        0.0872
@<TRIPOS>BOND
     1     1     2    1
     2     2     3   ar
     3     3     4   ar
     4     4     5   ar
     5     5     6    2
     6     5     7   ar
     7     7     8   ar
     8     2     8   ar
     9     8     9   ar
    10     9    10   ar
    11    10    11   ar
    12     7    11   ar
    13     1    12    1
    14     1    13    1
    15     1    14    1
    16     3    15    1
    17    11    16    1
