@<TRIPOS>MOLECULE
Cn1ccc2cnccc2c1=O
 20 21 0 0 0
SMALL
GASTEIGER
Energy = 0

@<TRIPOS>ATOM
      1 C           1.8990   -0.5863    0.0000 C.3     1  LIG1        0.0147
      2 N           1.1845   -0.1738    0.0000 N.ar    1  LIG1       -0.3177
      3 C           1.1845    0.6512    0.0000 C.ar    1  LIG1        0.0082
      4 C           0.4701    1.0637    0.0000 C.ar    1  LIG1       -0.0362
      5 C          -0.2444    0.6512    0.0000 C.ar    1  LIG1        0.0068
      6 C          -0.9589    1.0637    0.0000 C.ar    1  LIG1        0.0355
      7 N          -1.6733    0.6512    0.0000 N.ar    1  LIG1       -0.2626
      8 C          -1.6733   -0.1738    0.0000 C.ar    1  LIG1        0.0283
      9 C          -0.9589   -0.5863    0.0000 C.ar    1  LIG1       -0.0307
     10 C          -0.2444   -0.1738    0.0000 C.ar    1  LIG1        0.0495
     11 C           0.4701   -0.5863    0.0000 C.ar    1  LIG1        0.2589
     12 O           0.4701   -1.4113    0.0000 O.2     1  LIG1       -0.2670
     13 H           2.7658    0.1541    0.0000 H       1  LIG1        0.0457
     14 H           1.9616   -1.2673   -0.9121 H       1  LIG1        0.0457
     15 H           1.9584   -1.2329    0.9370 H       1  LIG1        0.0457
     16 H           2.1384    1.2019    0.0000 H       1  LIG1        0.0810
     17 H           0.4701    2.1652    0.0000 H       1  LIG1        0.0639
     18 H          -0.9589    2.1652    0.0000 H       1  LIG1        0.0836
     19 H          -2.6272   -0.7245    0.0000 H       1  LIG1        0.0830
     20 H          -0.9589   -1.6878    0.0000 H       1  LIG1        0.0640
@<TRIPOS>BOND
     1     1     2    1
     2     2     3   ar
     3     3     4   ar
     4     4     5   ar
     5     5     6   ar
     6     6     7   ar
     7     7     8   ar
     8     8     9   ar
     9     9    10   ar
    10     5    10   ar
    11    10    11   ar
    12     2    11   ar
    13    11    12    2
    14     1    13    1
    15     1    14    1
    16     1    15    1
    17     3    16    1
    18     4    17    1
    19     6    18    1
    20     8    19    1
    21     9    20    1
