@<TRIPOS>MOLECULE
O=c1[nH]cnc2cccnc12
 16 17 0 0 0
SMALL
GASTEIGER
Energy = 0

@<TRIPOS>ATOM
      1 O           0.6140   -1.4584    0.0000 O.2     1  LIG1       -0.2655
      2 C           0.6140   -0.6334    0.0000 C.ar    1  LIG1        0.2774
      3 N           1.3284   -0.2209    0.0000 N.ar    1  LIG1       -0.3117
      4 C           1.3284    0.6041    0.0000 C.ar    1  LIG1        0.0967
      5 N           0.6140    1.0166    0.0000 N.ar    1  LIG1       -0.2356
      6 C          -0.1005    0.6041    0.0000 C.ar    1  LIG1        0.0961
      7 C          -0.8150    1.0166    0.0000 C.ar    1  LIG1       -0.0326
      8 C          -1.5295    0.6041    0.0000 C.ar    1  LIG1       -0.0415
      9 C          -1.5295   -0.2209    0.0000 C.ar    1  LIG1        0.0286
     10 N          -0.8150   -0.6334    0.0000 N.ar    1  LIG1       -0.2480
     11 C          -0.1005   -0.2209    0.0000 C.ar    1  LIG1        0.1532
     12 H           2.2659   -0.7621    0.0000 H       1  LIG1        0.1698
     13 H           2.2823    1.1548    0.0000 H       1  LIG1        0.1028
     14 H          -0.8150    2.1181    0.0000 H       1  LIG1        0.0640
     15 H          -2.4834    1.1549    0.0000 H       1  LIG1        0.0633
     16 H          -2.4834   -0.7717    0.0000 H       1  LIG1        0.0830
@<TRIPOS>BOND
     1     1     2    2
     2     2     3   ar
     3     3     4   ar
     4     4     5   ar
     5     5     6   ar
     6     6     7   ar
     7     7     8   ar
     8     8     9   ar
     9     9    10   ar
    10    10    11   ar
    11     2    11   ar
    12     6    11   ar
    13     3    12    1
    14     4    13    1
    15     7    14    1
    16     8    15    1
    17     9    16    1
