@<TRIPOS>MOLECULE
c1snc2nccnc12
 12 13 0 0 0
SMALL
GASTEIGER
Energy = 0

@<TRIPOS>ATOM
      1 S           1.2190    0.0099    0.0000 S.2     1  LIG1        0.0078
      2 C           0.7341    0.6774    0.0000 C.ar    1  LIG1        0.0233
      3 C          -0.0506    0.4224    0.0000 C.ar    1  LIG1        0.1164
      4 N          -0.7650    0.8349    0.0000 N.ar    1  LIG1       -0.2498
      5 C          -1.4795    0.4224    0.0000 C.ar    1  LIG1        0.0465
      6 C          -1.4795   -0.4026    0.0000 C.ar    1  LIG1        0.0481
      7 N          -0.7650   -0.8151    0.0000 N.ar    1  LIG1       -0.2324
      8 C          -0.0506   -0.4026    0.0000 C.ar    1  LIG1        0.1868
      9 N           0.7341   -0.6575    0.0000 N.ar    1  LIG1       -0.1890
     10 H           1.0745    1.7250    0.0000 H       1  LIG1        0.0731
     11 H          -2.4334    0.9732    0.0000 H       1  LIG1        0.0845
     12 H          -2.4334   -0.9534    0.0000 H       1  LIG1        0.0846
@<TRIPOS>BOND
     1     1     2   ar
     2     2     3   ar
     3     3     4   ar
     4     4     5   ar
     5     5     6   ar
     6     6     7   ar
     7     7     8   ar
     8     3     8   ar
     9     8     9   ar
    10     1     9   ar
    11     2    10    1
    12     5    11    1
    13     6    12    1
