@<TRIPOS>MOLECULE
Cn1cccn1
 12 12 0 0 0
SMALL
GASTEIGER
Energy = 0

@<TRIPOS>ATOM
      1 C          -1.2616   -0.0175    0.0000 C.3     1  LIG1        0.0302
      2 N          -0.4366   -0.0175    0.0000 N.ar    1  LIG1       -0.2745
      3 C           0.0484   -0.6850    0.0000 C.ar    1  LIG1        0.0252
      4 C           0.8330   -0.4300    0.0000 C.ar    1  LIG1       -0.0242
      5 C           0.8330    0.3950    0.0000 C.ar    1  LIG1        0.0494
      6 N           0.0484    0.6499    0.0000 N.ar    1  LIG1       -0.1799
      7 H          -1.6421   -1.0921    0.0000 H       1  LIG1        0.0473
      8 H          -1.6563    0.5410   -0.9121 H       1  LIG1        0.0473
      9 H          -1.6363    0.5127    0.9370 H       1  LIG1        0.0473
     10 H          -0.2919   -1.7326    0.0000 H       1  LIG1        0.0826
     11 H           1.7242   -1.0774    0.0000 H       1  LIG1        0.0648
     12 H           1.7241    1.0425    0.0000 H       1  LIG1        0.0848
@<TRIPOS>BOND
     1     1     2    1
     2     2     3   ar
     3     3     4   ar
     4     4     5   ar
     5     5     6   ar
     6     2     6   ar
     7     1     7    1
     8     1     8    1
     9     1     9    1
    10     3    10    1
    11     4    11    1
    12     5    12    1
