@<TRIPOS>MOLECULE
Cn1ccnc2cnc(=O)nc12
 18 19 0 0 0
SMALL
GASTEIGER
Energy = 0

@<TRIPOS>ATOM
      1 C           0.8883   -1.4332    0.0000 C.3     1  LIG1        0.0133
      2 N           0.8883   -0.6082    0.0000 N.ar    1  LIG1       -0.3321
      3 C           1.6028   -0.1957    0.0000 C.ar    1  LIG1        0.0243
      4 C           1.6028    0.6293    0.0000 C.ar    1  LIG1        0.0446
      5 N           0.8883    1.0418    0.0000 N.ar    1  LIG1       -0.2489
      6 C           0.1738    0.6293    0.0000 C.ar    1  LIG1        0.1245
      7 C          -0.5406    1.0418    0.0000 C.ar    1  LIG1        0.0620
      8 N          -1.2551    0.6293    0.0000 N.ar    1  LIG1       -0.1977
      9 C          -1.2551   -0.1957    0.0000 C.ar    1  LIG1        0.3696
     10 O          -1.9696   -0.6082    0.0000 O.2     1  LIG1       -0.2426
     11 N          -0.5406   -0.6082    0.0000 N.ar    1  LIG1       -0.1719
     12 C           0.1738   -0.1957    0.0000 C.ar    1  LIG1        0.1659
     13 H           1.9629   -1.8137    0.0000 H       1  LIG1        0.0456
     14 H           0.3298   -1.8279   -0.9121 H       1  LIG1        0.0456
     15 H           0.3581   -1.8079    0.9370 H       1  LIG1        0.0456
     16 H           2.5567   -0.7465    0.0000 H       1  LIG1        0.0825
     17 H           2.5567    1.1801    0.0000 H       1  LIG1        0.0844
     18 H          -0.5406    2.1433    0.0000 H       1  LIG1        0.0854
@<TRIPOS>BOND
     1     1     2    1
     2     2     3   ar
     3     3     4   ar
     4     4     5   ar
     5     5     6   ar
     6     6     7   ar
     7     7     8   ar
     8     8     9   ar
     9     9    10    2
    10     9    11   ar
    11    11    12   ar
    12     2    12   ar
    13     6    12   ar
    14     1    13    1
    15     1    14    1
    16     1    15    1
    17     3    16    1
    18     4    17    1
    19     7    18    1
