@<TRIPOS>MOLECULE
c1cc2c[nH]ncc2n1
 14 15 0 0 0
SMALL
GASTEIGER
Energy = 0

@<TRIPOS>ATOM
      1 N           1.2402    0.4242    0.0000 N.ar    1  LIG1       -0.2841
      2 C           0.5257    0.8367    0.0000 C.ar    1  LIG1        0.0301
      3 C          -0.1887    0.4242    0.0000 C.ar    1  LIG1        0.0208
      4 C          -0.9733    0.6791    0.0000 C.ar    1  LIG1       -0.0330
      5 C          -1.4583    0.0117    0.0000 C.ar    1  LIG1        0.0290
      6 N          -0.9733   -0.6558    0.0000 N.ar    1  LIG1       -0.2533
      7 C          -0.1887   -0.4008    0.0000 C.ar    1  LIG1        0.0921
      8 C           0.5257   -0.8133    0.0000 C.ar    1  LIG1        0.0736
      9 N           1.2402   -0.4008    0.0000 N.ar    1  LIG1       -0.1802
     10 H           2.1777    0.9655    0.0000 H       1  LIG1        0.1882
     11 H           0.5257    1.9382    0.0000 H       1  LIG1        0.0830
     12 H          -1.3136    1.7267    0.0000 H       1  LIG1        0.0640
     13 H          -2.5598    0.0117    0.0000 H       1  LIG1        0.0830
     14 H           0.5257   -1.9148    0.0000 H       1  LIG1        0.0869
@<TRIPOS>BOND
     1     1     2   ar
     2     2     3   ar
     3     3     4   ar
     4     4     5   ar
     5     5     6   ar
     6     6     7   ar
     7     3     7   ar
     8     7     8   ar
     9     8     9   ar
    10     1     9   ar
    11     1    10    1
    12     2    11    1
    13     4    12    1
    14     5    13    1
    15     8    14    1
