@<TRIPOS>MOLECULE
Cn1cnc(=O)c2ncsc12
 16 17 0 0 0
SMALL
GASTEIGER
Energy = 0

@<TRIPOS>ATOM
      1 C          -0.5641   -1.6112    0.0000 C.3     1  LIG1        0.0137
      2 N          -0.5641   -0.7862    0.0000 N.ar    1  LIG1       -0.3275
      3 C          -1.2786   -0.3737    0.0000 C.ar    1  LIG1        0.1005
      4 N          -1.2786    0.4513    0.0000 N.ar    1  LIG1       -0.1975
      5 C          -0.5641    0.8638    0.0000 C.ar    1  LIG1        0.2996
      6 O          -0.5641    1.6888    0.0000 O.2     1  LIG1       -0.2634
      7 C           0.1504    0.4513    0.0000 C.ar    1  LIG1        0.1607
      8 C           0.1504   -0.3737    0.0000 C.ar    1  LIG1        0.1135
      9 S           0.9350   -0.6286    0.0000 S.2     1  LIG1       -0.0574
     10 C           1.4199    0.0388    0.0000 C.ar    1  LIG1        0.0675
     11 N           0.9350    0.7063    0.0000 N.ar    1  LIG1       -0.2404
     12 H          -1.6387   -1.9917    0.0000 H       1  LIG1        0.0456
     13 H          -0.0056   -2.0059    0.9121 H       1  LIG1        0.0456
     14 H          -0.0339   -1.9859   -0.9370 H       1  LIG1        0.0456
     15 H          -2.2325   -0.9245    0.0000 H       1  LIG1        0.1030
     16 H           2.5214    0.0388    0.0000 H       1  LIG1        0.0908
@<TRIPOS>BOND
     1     1     2    1
     2     2     3   ar
     3     3     4   ar
     4     4     5   ar
     5     5     6    2
     6     5     7   ar
     7     7     8   ar
     8     2     8   ar
     9     8     9   ar
    10     9    10   ar
    11    10    11   ar
    12     7    11   ar
    13     1    12    1
    14     1    13    1
    15     1    14    1
    16     3    15    1
    17    10    16    1
