@<TRIPOS>MOLECULE
c1cc2nnccc2[nH]1
 14 15 0 0 0
SMALL
GASTEIGER
Energy = 0

@<TRIPOS>ATOM
      1 N           0.9608   -0.6774    0.0000 N.ar    1  LIG1       -0.3593
      2 C           1.4458   -0.0100    0.0000 C.ar    1  LIG1        0.0043
      3 C           0.9608    0.6575    0.0000 C.ar    1  LIG1       -0.0166
      4 C           0.1762    0.4025    0.0000 C.ar    1  LIG1        0.1107
      5 N          -0.5382    0.8150    0.0000 N.ar    1  LIG1       -0.1477
      6 N          -1.2527    0.4025    0.0000 N.ar    1  LIG1       -0.1570
      7 C          -1.2527   -0.4225    0.0000 C.ar    1  LIG1        0.0519
      8 C          -0.5382   -0.8350    0.0000 C.ar    1  LIG1       -0.0164
      9 C           0.1762   -0.4225    0.0000 C.ar    1  LIG1        0.0682
     10 H           1.2953   -1.7069    0.0000 H       1  LIG1        0.1654
     11 H           2.5473   -0.0100    0.0000 H       1  LIG1        0.0807
     12 H           1.3011    1.7051    0.0000 H       1  LIG1        0.0654
     13 H          -2.2066   -0.9733    0.0000 H       1  LIG1        0.0848
     14 H          -0.5382   -1.9365    0.0000 H       1  LIG1        0.0654
@<TRIPOS>BOND
     1     1     2   ar
     2     2     3   ar
     3     3     4   ar
     4     4     5   ar
     5     5     6   ar
     6     6     7   ar
     7     7     8   ar
     8     8     9   ar
     9     1     9   ar
    10     4     9   ar
    11     1    10    1
    12     2    11    1
    13     3    12    1
    14     7    13    1
    15     8    14    1
