@<TRIPOS>MOLECULE
Cn1ccc(=O)c2ncsc12
 17 18 0 0 0
SMALL
GASTEIGER
Energy = 0

@<TRIPOS>ATOM
      1 C          -0.5800   -1.6056    0.0000 C.3     1  LIG1        0.0124
      2 N          -0.5800   -0.7806    0.0000 N.ar    1  LIG1       -0.3429
      3 C          -1.2945   -0.3681    0.0000 C.ar    1  LIG1        0.0090
      4 C          -1.2945    0.4569    0.0000 C.ar    1  LIG1        0.0034
      5 C          -0.5800    0.8694    0.0000 C.ar    1  LIG1        0.2081
      6 O          -0.5800    1.6944    0.0000 O.2     1  LIG1       -0.2855
      7 C           0.1344    0.4569    0.0000 C.ar    1  LIG1        0.1412
      8 C           0.1344   -0.3681    0.0000 C.ar    1  LIG1        0.1108
      9 S           0.9190   -0.6230    0.0000 S.2     1  LIG1       -0.0575
     10 C           1.4040    0.0444    0.0000 C.ar    1  LIG1        0.0675
     11 N           0.9190    0.7119    0.0000 N.ar    1  LIG1       -0.2420
     12 H          -1.6546   -1.9861    0.0000 H       1  LIG1        0.0456
     13 H          -0.0215   -2.0003    0.9121 H       1  LIG1        0.0456
     14 H          -0.0498   -1.9803   -0.9370 H       1  LIG1        0.0456
     15 H          -2.2484   -0.9189    0.0000 H       1  LIG1        0.0810
     16 H          -2.2484    1.0077    0.0000 H       1  LIG1        0.0671
     17 H           2.5055    0.0444    0.0000 H       1  LIG1        0.0908
@<TRIPOS>BOND
     1     1     2    1
     2     2     3   ar
     3     3     4   ar
     4     4     5   ar
     5     5     6    2
     6     5     7   ar
     7     7     8   ar
     8     2     8   ar
     9     8     9   ar
    10     9    10   ar
    11    10    11   ar
    12     7    11   ar
    13     1    12    1
    14     1    13    1
    15     1    14    1
    16     3    15    1
    17     4    16    1
    18    10    17    1
