@<TRIPOS>MOLECULE
Cn1nnc2nccnc12
 15 16 0 0 0
SMALL
GASTEIGER
Energy = 0

@<TRIPOS>ATOM
      1 C           1.0556   -1.3180    0.0000 C.3     1  LIG1        0.0341
      2 N           0.8007   -0.5334    0.0000 N.ar    1  LIG1       -0.2284
      3 N           1.2856    0.1341    0.0000 N.ar    1  LIG1       -0.0620
      4 N           0.8007    0.8015    0.0000 N.ar    1  LIG1       -0.1076
      5 C           0.0161    0.5466    0.0000 C.ar    1  LIG1        0.2205
      6 N          -0.6984    0.9591    0.0000 N.ar    1  LIG1       -0.2301
      7 C          -1.4129    0.5466    0.0000 C.ar    1  LIG1        0.0482
      8 C          -1.4129   -0.2784    0.0000 C.ar    1  LIG1        0.0482
      9 N          -0.6984   -0.6909    0.0000 N.ar    1  LIG1       -0.2318
     10 C           0.0161   -0.2784    0.0000 C.ar    1  LIG1        0.1975
     11 H           2.1952   -1.3479    0.0000 H       1  LIG1        0.0474
     12 H           0.6464   -1.8659   -0.9121 H       1  LIG1        0.0474
     13 H           0.6671   -1.8382    0.9370 H       1  LIG1        0.0474
     14 H          -2.3668    1.0974    0.0000 H       1  LIG1        0.0846
     15 H          -2.3668   -0.8292    0.0000 H       1  LIG1        0.0846
@<TRIPOS>BOND
     1     1     2    1
     2     2     3   ar
     3     3     4   ar
     4     4     5   ar
     5     5     6   ar
     6     6     7   ar
     7     7     8   ar
     8     8     9   ar
     9     9    10   ar
    10     2    10   ar
    11     5    10   ar
    12     1    11    1
    13     1    12    1
    14     1    13    1
    15     7    14    1
    16     8    15    1
