@<TRIPOS>MOLECULE
Cn1ncn2c(=O)ccnc12
 17 18 0 0 0
SMALL
GASTEIGER
Energy = 0

@<TRIPOS>ATOM
      1 C           1.1344   -1.4993    0.0000 C.3     1  LIG1        0.0339
      2 N           0.8794   -0.7147    0.0000 N.ar    1  LIG1       -0.2338
      3 N           1.3644   -0.0472    0.0000 N.ar    1  LIG1       -0.1584
      4 C           0.8794    0.6202    0.0000 C.ar    1  LIG1        0.1263
      5 N           0.0948    0.3653    0.0000 N.ar    1  LIG1       -0.2339
      6 C          -0.6196    0.7778    0.0000 C.ar    1  LIG1        0.2606
      7 O          -0.6196    1.6028    0.0000 O.2     1  LIG1       -0.2672
      8 C          -1.3341    0.3653    0.0000 C.ar    1  LIG1        0.0216
      9 C          -1.3341   -0.4597    0.0000 C.ar    1  LIG1        0.0365
     10 N          -0.6196   -0.8722    0.0000 N.ar    1  LIG1       -0.2202
     11 C           0.0948   -0.4597    0.0000 C.ar    1  LIG1        0.2353
     12 H           2.2740   -1.5291    0.0000 H       1  LIG1        0.0474
     13 H           0.7253   -2.0473   -0.9121 H       1  LIG1        0.0474
     14 H           0.7459   -2.0196    0.9370 H       1  LIG1        0.0474
     15 H           1.2197    1.6678    0.0000 H       1  LIG1        0.1052
     16 H          -2.2880    0.9161    0.0000 H       1  LIG1        0.0687
     17 H          -2.2880   -1.0105    0.0000 H       1  LIG1        0.0832
@<TRIPOS>BOND
     1     1     2    1
     2     2     3   ar
     3     3     4   ar
     4     4     5   ar
     5     5     6   ar
     6     6     7    2
     7     6     8   ar
     8     8     9   ar
     9     9    10   ar
    10    10    11   ar
    11     2    11   ar
    12     5    11   ar
    13     1    12    1
    14     1    13    1
    15     1    14    1
    16     4    15    1
    17     8    16    1
    18     9    17    1
