@<TRIPOS>MOLECULE
Cn1cnc(=O)c2occc12
 17 18 0 0 0
SMALL
GASTEIGER
Energy = 0

@<TRIPOS>ATOM
      1 C          -0.4469   -1.7084    0.0000 C.3     1  LIG1        0.0133
      2 N          -0.4469   -0.8834    0.0000 N.ar    1  LIG1       -0.3317
      3 C          -1.1614   -0.4709    0.0000 C.ar    1  LIG1        0.1002
      4 N          -1.1614    0.3541    0.0000 N.ar    1  LIG1       -0.1962
      5 C          -0.4469    0.7666    0.0000 C.ar    1  LIG1        0.3160
      6 O          -0.4469    1.5916    0.0000 O.2     1  LIG1       -0.2617
      7 C           0.2676    0.3541    0.0000 C.ar    1  LIG1        0.2169
      8 C           0.2676   -0.4709    0.0000 C.ar    1  LIG1        0.0939
      9 C           1.0522   -0.7259    0.0000 C.ar    1  LIG1        0.0006
     10 C           1.5371   -0.0584    0.0000 C.ar    1  LIG1        0.0949
     11 O           1.0522    0.6090    0.0000 O.2     1  LIG1       -0.4559
     12 H          -1.5215   -2.0889    0.0000 H       1  LIG1        0.0456
     13 H           0.1116   -2.1031    0.9121 H       1  LIG1        0.0456
     14 H           0.0833   -2.0831   -0.9370 H       1  LIG1        0.0456
     15 H          -2.1153   -1.0217    0.0000 H       1  LIG1        0.1030
     16 H           1.3926   -1.7735    0.0000 H       1  LIG1        0.0670
     17 H           2.6386   -0.0584    0.0000 H       1  LIG1        0.1030
@<TRIPOS>BOND
     1     1     2    1
     2     2     3   ar
     3     3     4   ar
     4     4     5   ar
     5     5     6    2
     6     5     7   ar
     7     7     8   ar
     8     2     8   ar
     9     8     9   ar
    10     9    10   ar
    11    10    11   ar
    12     7    11   ar
    13     1    12    1
    14     1    13    1
    15     1    14    1
    16     3    15    1
    17     9    16    1
    18    10    17    1
