@<TRIPOS>MOLECULE
Cn1ncc2ccoc12
 15 16 0 0 0
SMALL
GASTEIGER
Energy = 0

@<TRIPOS>ATOM
      1 C           0.9236   -1.2674    0.0000 C.3     1  LIG1        0.0338
      2 N           0.6687   -0.4828    0.0000 N.ar    1  LIG1       -0.2355
      3 N           1.1536    0.1847    0.0000 N.ar    1  LIG1       -0.1762
      4 C           0.6687    0.8521    0.0000 C.ar    1  LIG1        0.0604
      5 C          -0.1159    0.5972    0.0000 C.ar    1  LIG1        0.0591
      6 C          -0.1159   -0.2278    0.0000 C.ar    1  LIG1        0.2252
      7 O          -0.9005   -0.4828    0.0000 O.2     1  LIG1       -0.4452
      8 C          -1.3855    0.1847    0.0000 C.ar    1  LIG1        0.0951
      9 C          -0.9005    0.8521    0.0000 C.ar    1  LIG1       -0.0130
     10 H           2.0632   -1.2973    0.0000 H       1  LIG1        0.0474
     11 H           0.5144   -1.8153   -0.9121 H       1  LIG1        0.0474
     12 H           0.5351   -1.7876    0.9370 H       1  LIG1        0.0474
     13 H           1.0091    1.8997    0.0000 H       1  LIG1        0.0855
     14 H          -2.4870    0.1847    0.0000 H       1  LIG1        0.1030
     15 H          -1.2408    1.8997    0.0000 H       1  LIG1        0.0656
@<TRIPOS>BOND
     1     1     2    1
     2     2     3   ar
     3     3     4   ar
     4     4     5   ar
     5     5     6   ar
     6     2     6   ar
     7     6     7   ar
     8     7     8   ar
     9     8     9   ar
    10     5     9   ar
    11     1    10    1
    12     1    11    1
    13     1    12    1
    14     4    13    1
    15     8    14    1
    16     9    15    1
