@<TRIPOS>MOLECULE
O=c1nc[nH]c2cc[nH]c12
 15 16 0 0 0
SMALL
GASTEIGER
Energy = 0

@<TRIPOS>ATOM
      1 O          -0.4720   -1.4431    0.0000 O.2     1  LIG1       -0.2635
      2 C          -0.4720   -0.6181    0.0000 C.ar    1  LIG1        0.2970
      3 N          -1.1865   -0.2056    0.0000 N.ar    1  LIG1       -0.1978
      4 C          -1.1865    0.6194    0.0000 C.ar    1  LIG1        0.0978
      5 N          -0.4720    1.0319    0.0000 N.ar    1  LIG1       -0.3442
      6 C           0.2424    0.6194    0.0000 C.ar    1  LIG1        0.0707
      7 C           0.2424   -0.2056    0.0000 C.ar    1  LIG1        0.1300
      8 N           1.0270   -0.4606    0.0000 N.ar    1  LIG1       -0.3552
      9 C           1.5120    0.2069    0.0000 C.ar    1  LIG1        0.0043
     10 C           1.0270    0.8743    0.0000 C.ar    1  LIG1       -0.0202
     11 H          -2.1404    1.1702    0.0000 H       1  LIG1        0.1028
     12 H          -0.4720    2.1144    0.0000 H       1  LIG1        0.1668
     13 H           1.3615   -1.4901    0.0000 H       1  LIG1        0.1655
     14 H           2.6135    0.2069    0.0000 H       1  LIG1        0.0807
     15 H           1.3673    1.9219    0.0000 H       1  LIG1        0.0653
@<TRIPOS>BOND
     1     1     2    2
     2     2     3   ar
     3     3     4   ar
     4     4     5   ar
     5     5     6   ar
     6     6     7   ar
     7     2     7   ar
     8     7     8   ar
     9     8     9   ar
    10     9    10   ar
    11     6    10   ar
    12     4    11    1
    13     5    12    1
    14     8    13    1
    15     9    14    1
    16    10    15    1
