@<TRIPOS>MOLECULE
O=c1cc[nH]c2cncn12
 15 16 0 0 0
SMALL
GASTEIGER
Energy = 0

@<TRIPOS>ATOM
      1 O           0.5014   -1.4534    0.0000 O.2     1  LIG1       -0.2672
      2 C           0.5014   -0.6284    0.0000 C.ar    1  LIG1        0.2593
      3 C           1.2159   -0.2159    0.0000 C.ar    1  LIG1        0.0193
      4 C           1.2159    0.6091    0.0000 C.ar    1  LIG1        0.0086
      5 N           0.5014    1.0216    0.0000 N.ar    1  LIG1       -0.3459
      6 C          -0.2131    0.6091    0.0000 C.ar    1  LIG1        0.1377
      7 C          -0.9977    0.8640    0.0000 C.ar    1  LIG1        0.0702
      8 N          -1.4826    0.1966    0.0000 N.ar    1  LIG1       -0.2415
      9 C          -0.9977   -0.4708    0.0000 C.ar    1  LIG1        0.1046
     10 N          -0.2131   -0.2159    0.0000 N.ar    1  LIG1       -0.2515
     11 H           2.1698   -0.7667    0.0000 H       1  LIG1        0.0686
     12 H           2.1698    1.1599    0.0000 H       1  LIG1        0.0809
     13 H           0.5014    2.1041    0.0000 H       1  LIG1        0.1667
     14 H          -1.3381    1.9116    0.0000 H       1  LIG1        0.0867
     15 H          -1.3381   -1.5184    0.0000 H       1  LIG1        0.1033
@<TRIPOS>BOND
     1     1     2    2
     2     2     3   ar
     3     3     4   ar
     4     4     5   ar
     5     5     6   ar
     6     6     7   ar
     7     7     8   ar
     8     8     9   ar
     9     9    10   ar
    10     2    10   ar
    11     6    10   ar
    12     3    11    1
    13     4    12    1
    14     5    13    1
    15     7    14    1
    16     9    15    1
