@<TRIPOS>MOLECULE
Cn1ccccc1=O
 15 15 0 0 0
SMALL
GASTEIGER
Energy = 0

@<TRIPOS>ATOM
      1 C           0.2240   -1.3104    0.0000 C.3     1  LIG1        0.0147
      2 N           0.2240   -0.4854    0.0000 N.ar    1  LIG1       -0.3183
      3 C           0.9385   -0.0729    0.0000 C.ar    1  LIG1        0.0076
      4 C           0.9385    0.7521    0.0000 C.ar    1  LIG1       -0.0453
      5 C           0.2240    1.1646    0.0000 C.ar    1  LIG1       -0.0553
      6 C          -0.4905    0.7521    0.0000 C.ar    1  LIG1        0.0030
      7 C          -0.4905   -0.0729    0.0000 C.ar    1  LIG1        0.2510
      8 O          -1.2050   -0.4854    0.0000 O.2     1  LIG1       -0.2677
      9 H           1.2986   -1.6909    0.0000 H       1  LIG1        0.0457
     10 H          -0.3345   -1.7051   -0.9121 H       1  LIG1        0.0457
     11 H          -0.3062   -1.6851    0.9370 H       1  LIG1        0.0457
     12 H           1.8924   -0.6237    0.0000 H       1  LIG1        0.0810
     13 H           1.8924    1.3029    0.0000 H       1  LIG1        0.0632
     14 H           0.2240    2.2661    0.0000 H       1  LIG1        0.0620
     15 H          -1.4444    1.3029    0.0000 H       1  LIG1        0.0672
@<TRIPOS>BOND
     1     1     2    1
     2     2     3   ar
     3     3     4   ar
     4     4     5   ar
     5     5     6   ar
     6     6     7   ar
     7     2     7   ar
     8     7     8    2
     9     1     9    1
    10     1    10    1
    11     1    11    1
    12     3    12    1
    13     4    13    1
    14     5    14    1
    15     6    15    1
