@<TRIPOS>MOLECULE
Cn1ccc2ncnc2n1
 16 17 0 0 0
SMALL
GASTEIGER
Energy = 0

@<TRIPOS>ATOM
      1 C           1.7977   -0.7284    0.0000 C.3     1  LIG1        0.0302
      2 N           1.0832   -0.3159    0.0000 N.ar    1  LIG1       -0.2724
      3 C           1.0832    0.5091    0.0000 C.ar    1  LIG1        0.0259
      4 C           0.3688    0.9216    0.0000 C.ar    1  LIG1       -0.0148
      5 C          -0.3457    0.5091    0.0000 C.ar    1  LIG1        0.1127
      6 N          -1.1303    0.7641    0.0000 N.ar    1  LIG1       -0.2322
      7 C          -1.6153    0.0966    0.0000 C.ar    1  LIG1        0.1192
      8 N          -1.1303   -0.5708    0.0000 N.ar    1  LIG1       -0.2132
      9 C          -0.3457   -0.3159    0.0000 C.ar    1  LIG1        0.1997
     10 N           0.3688   -0.7284    0.0000 N.ar    1  LIG1       -0.1498
     11 H           2.6645    0.0120    0.0000 H       1  LIG1        0.0473
     12 H           1.8603   -1.4094   -0.9121 H       1  LIG1        0.0473
     13 H           1.8571   -1.3750    0.9370 H       1  LIG1        0.0473
     14 H           2.0371    1.0598    0.0000 H       1  LIG1        0.0826
     15 H           0.3688    2.0231    0.0000 H       1  LIG1        0.0655
     16 H          -2.7168    0.0966    0.0000 H       1  LIG1        0.1048
@<TRIPOS>BOND
     1     1     2    1
     2     2     3   ar
     3     3     4   ar
     4     4     5   ar
     5     5     6   ar
     6     6     7   ar
     7     7     8   ar
     8     8     9   ar
     9     5     9   ar
    10     9    10   ar
    11     2    10   ar
    12     1    11    1
    13     1    12    1
    14     1    13    1
    15     3    14    1
    16     4    15    1
    17     7    16    1
