@<TRIPOS>MOLECULE
O=c1nc[nH]c2nc[nH]c12
 14 15 0 0 0
SMALL
GASTEIGER
Energy = 0

@<TRIPOS>ATOM
      1 O          -0.4876   -1.4564    0.0000 O.2     1  LIG1       -0.2635
      2 C          -0.4876   -0.6314    0.0000 C.ar    1  LIG1        0.2986
      3 N          -1.2020   -0.2189    0.0000 N.ar    1  LIG1       -0.1977
      4 C          -1.2020    0.6061    0.0000 C.ar    1  LIG1        0.0988
      5 N          -0.4876    1.0186    0.0000 N.ar    1  LIG1       -0.3291
      6 C           0.2269    0.6061    0.0000 C.ar    1  LIG1        0.1626
      7 C           0.2269   -0.2189    0.0000 C.ar    1  LIG1        0.1502
      8 N           1.0115   -0.4738    0.0000 N.ar    1  LIG1       -0.3389
      9 C           1.4964    0.1936    0.0000 C.ar    1  LIG1        0.0963
     10 N           1.0115    0.8611    0.0000 N.ar    1  LIG1       -0.2182
     11 H          -2.1559    1.1568    0.0000 H       1  LIG1        0.1028
     12 H          -0.4876    2.1011    0.0000 H       1  LIG1        0.1682
     13 H           1.3460   -1.5033    0.0000 H       1  LIG1        0.1670
     14 H           2.5979    0.1936    0.0000 H       1  LIG1        0.1027
@<TRIPOS>BOND
     1     1     2    2
     2     2     3   ar
     3     3     4   ar
     4     4     5   ar
     5     5     6   ar
     6     6     7   ar
     7     2     7   ar
     8     7     8   ar
     9     8     9   ar
    10     9    10   ar
    11     6    10   ar
    12     4    11    1
    13     5    12    1
    14     8    13    1
    15     9    14    1
