@<TRIPOS>MOLECULE
c1nc2ncnnc2s1
 11 12 0 0 0
SMALL
GASTEIGER
Energy = 0

@<TRIPOS>ATOM
      1 S           0.8272   -0.5729    0.0000 S.2     1  LIG1       -0.0525
      2 C           1.3121    0.0946    0.0000 C.ar    1  LIG1        0.0692
      3 N           0.8272    0.7620    0.0000 N.ar    1  LIG1       -0.2267
      4 C           0.0426    0.5071    0.0000 C.ar    1  LIG1        0.1891
      5 N          -0.6719    0.9196    0.0000 N.ar    1  LIG1       -0.2122
      6 C          -1.3864    0.5071    0.0000 C.ar    1  LIG1        0.1407
      7 N          -1.3864   -0.3179    0.0000 N.ar    1  LIG1       -0.1366
      8 N          -0.6719   -0.7304    0.0000 N.ar    1  LIG1       -0.1373
      9 C           0.0426   -0.3179    0.0000 C.ar    1  LIG1        0.1688
     10 H           2.4136    0.0946    0.0000 H       1  LIG1        0.0909
     11 H          -2.3403    1.0579    0.0000 H       1  LIG1        0.1066
@<TRIPOS>BOND
     1     1     2   ar
     2     2     3   ar
     3     3     4   ar
     4     4     5   ar
     5     5     6   ar
     6     6     7   ar
     7     7     8   ar
     8     8     9   ar
     9     1     9   ar
    10     4     9   ar
    11     2    10    1
    12     6    11    1
