@<TRIPOS>MOLECULE
Cn1c(=O)cc2ccccn12
 19 20 0 0 0
SMALL
GASTEIGER
Energy = 0

@<TRIPOS>ATOM
      1 C           0.8242    1.3122    0.0000 C.3     1  LIG1        0.0324
      2 N           0.5693    0.5276    0.0000 N.ar    1  LIG1       -0.2485
      3 N          -0.2154    0.2726    0.0000 N.ar    1  LIG1       -0.2572
      4 C          -0.9298    0.6851    0.0000 C.ar    1  LIG1        0.0280
      5 C          -1.6443    0.2726    0.0000 C.ar    1  LIG1       -0.0436
      6 C          -1.6443   -0.5524    0.0000 C.ar    1  LIG1       -0.0583
      7 C          -0.9298   -0.9649    0.0000 C.ar    1  LIG1       -0.0361
      8 C          -0.2154   -0.5524    0.0000 C.ar    1  LIG1        0.0687
      9 C           0.5693   -0.8073    0.0000 C.ar    1  LIG1        0.0296
     10 C           1.0542   -0.1399    0.0000 C.ar    1  LIG1        0.2678
     11 O           1.8792   -0.1399    0.0000 O.2     1  LIG1       -0.2662
     12 H          -0.0802    2.0062    0.0000 H       1  LIG1        0.0473
     13 H           1.4773    1.5150   -0.9121 H       1  LIG1        0.0473
     14 H           1.4443    1.5048    0.9370 H       1  LIG1        0.0473
     15 H          -0.9298    1.7866    0.0000 H       1  LIG1        0.0829
     16 H          -2.5982    0.8234    0.0000 H       1  LIG1        0.0633
     17 H          -2.5982   -1.1032    0.0000 H       1  LIG1        0.0619
     18 H          -0.9298   -2.0664    0.0000 H       1  LIG1        0.0639
     19 H           0.9097   -1.8549    0.0000 H       1  LIG1        0.0693
@<TRIPOS>BOND
     1     1     2    1
     2     2     3   ar
     3     3     4   ar
     4     4     5   ar
     5     5     6   ar
     6     6     7   ar
     7     7     8   ar
     8     3     8   ar
     9     8     9   ar
    10     9    10   ar
    11     2    10   ar
    12    10    11    2
    13     1    12    1
    14     1    13    1
    15     1    14    1
    16     4    15    1
    17     5    16    1
    18     6    17    1
    19     7    18    1
    20     9    19    1
