@<TRIPOS>MOLECULE
c1nc2cnncc2s1
 12 13 0 0 0
SMALL
GASTEIGER
Energy = 0

@<TRIPOS>ATOM
      1 S           0.8278   -0.5776    0.0000 S.2     1  LIG1       -0.0738
      2 C           1.3127    0.0899    0.0000 C.ar    1  LIG1        0.0660
      3 N           0.8278    0.7573    0.0000 N.ar    1  LIG1       -0.2458
      4 C           0.0432    0.5024    0.0000 C.ar    1  LIG1        0.0994
      5 C          -0.6713    0.9149    0.0000 C.ar    1  LIG1        0.0764
      6 N          -1.3857    0.5024    0.0000 N.ar    1  LIG1       -0.1555
      7 N          -1.3857   -0.3226    0.0000 N.ar    1  LIG1       -0.1565
      8 C          -0.6713   -0.7351    0.0000 C.ar    1  LIG1        0.0658
      9 C           0.0432   -0.3226    0.0000 C.ar    1  LIG1        0.0602
     10 H           2.4142    0.0899    0.0000 H       1  LIG1        0.0907
     11 H          -0.6713    2.0164    0.0000 H       1  LIG1        0.0870
     12 H          -0.6713   -1.8366    0.0000 H       1  LIG1        0.0860
@<TRIPOS>BOND
     1     1     2   ar
     2     2     3   ar
     3     3     4   ar
     4     4     5   ar
     5     5     6   ar
     6     6     7   ar
     7     7     8   ar
     8     8     9   ar
     9     1     9   ar
    10     4     9   ar
    11     2    10    1
    12     5    11    1
    13     8    12    1
