@<TRIPOS>MOLECULE
O=c1ncn2ncnc2[nH]1
 13 14 0 0 0
SMALL
GASTEIGER
Energy = 0

@<TRIPOS>ATOM
      1 O           1.7494    0.7266    0.0000 O.2     1  LIG1       -0.2446
      2 C           1.0349    0.3141    0.0000 C.ar    1  LIG1        0.3499
      3 N           0.3204    0.7266    0.0000 N.ar    1  LIG1       -0.2750
      4 C          -0.3940    0.3141    0.0000 C.ar    1  LIG1        0.2358
      5 N          -1.1787    0.5690    0.0000 N.ar    1  LIG1       -0.1989
      6 C          -1.6636   -0.0984    0.0000 C.ar    1  LIG1        0.1405
      7 N          -1.1787   -0.7659    0.0000 N.ar    1  LIG1       -0.1510
      8 N          -0.3940   -0.5109    0.0000 N.ar    1  LIG1       -0.1870
      9 C           0.3204   -0.9234    0.0000 C.ar    1  LIG1        0.1266
     10 N           1.0349   -0.5109    0.0000 N.ar    1  LIG1       -0.1815
     11 H           0.3204    1.8091    0.0000 H       1  LIG1        0.1734
     12 H          -2.7651   -0.0984    0.0000 H       1  LIG1        0.1066
     13 H           0.3204   -2.0249    0.0000 H       1  LIG1        0.1050
@<TRIPOS>BOND
     1     1     2    2
     2     2     3   ar
     3     3     4   ar
     4     4     5   ar
     5     5     6   ar
     6     6     7   ar
     7     7     8   ar
     8     4     8   ar
     9     8     9   ar
    10     9    10   ar
    11     2    10   ar
    12     3    11    1
    13     6    12    1
    14     9    13    1
