@<TRIPOS>MOLECULE
O=c1nc2cncnc2n[nH]1
 14 15 0 0 0
SMALL
GASTEIGER
Energy = 0

@<TRIPOS>ATOM
      1 O           1.8989   -0.7459    0.0000 O.2     1  LIG1       -0.2432
      2 C           1.1844   -0.3334    0.0000 C.ar    1  LIG1        0.3627
      3 N           1.1844    0.4916    0.0000 N.ar    1  LIG1       -0.2248
      4 N           0.4700    0.9041    0.0000 N.ar    1  LIG1       -0.1479
      5 C          -0.2445    0.4916    0.0000 C.ar    1  LIG1        0.2012
      6 N          -0.9590    0.9041    0.0000 N.ar    1  LIG1       -0.2131
      7 C          -1.6735    0.4916    0.0000 C.ar    1  LIG1        0.1185
      8 N          -1.6735   -0.3334    0.0000 N.ar    1  LIG1       -0.2414
      9 C          -0.9590   -0.7459    0.0000 C.ar    1  LIG1        0.0585
     10 C          -0.2445   -0.3334    0.0000 C.ar    1  LIG1        0.1330
     11 N           0.4700   -0.7459    0.0000 N.ar    1  LIG1       -0.1872
     12 H           2.1219    1.0328    0.0000 H       1  LIG1        0.1937
     13 H          -2.6274    1.0424    0.0000 H       1  LIG1        0.1047
     14 H          -0.9590   -1.8474    0.0000 H       1  LIG1        0.0853
@<TRIPOS>BOND
     1     1     2    2
     2     2     3   ar
     3     3     4   ar
     4     4     5   ar
     5     5     6   ar
     6     6     7   ar
     7     7     8   ar
     8     8     9   ar
     9     9    10   ar
    10     5    10   ar
    11    10    11   ar
    12     2    11   ar
    13     3    12    1
    14     7    13    1
    15     9    14    1
