@<TRIPOS>MOLECULE
Cn1cc2[nH]cnc2nc1=O
 17 18 0 0 0
SMALL
GASTEIGER
Energy = 0

@<TRIPOS>ATOM
      1 C           1.5981    0.8536    0.0000 C.3     1  LIG1        0.0162
      2 N           0.8836    0.4411    0.0000 N.ar    1  LIG1       -0.3001
      3 C           0.1692    0.8536    0.0000 C.ar    1  LIG1        0.0360
      4 C          -0.5453    0.4411    0.0000 C.ar    1  LIG1        0.1016
      5 N          -1.3299    0.6960    0.0000 N.ar    1  LIG1       -0.3420
      6 C          -1.8149    0.0286    0.0000 C.ar    1  LIG1        0.0962
      7 N          -1.3299   -0.6389    0.0000 N.ar    1  LIG1       -0.2164
      8 C          -0.5453   -0.3839    0.0000 C.ar    1  LIG1        0.1842
      9 N           0.1692   -0.7964    0.0000 N.ar    1  LIG1       -0.1716
     10 C           0.8836   -0.3839    0.0000 C.ar    1  LIG1        0.3502
     11 O           1.5981   -0.7964    0.0000 O.2     1  LIG1       -0.2444
     12 H           1.3904    1.9745    0.0000 H       1  LIG1        0.0457
     13 H           2.2191    0.5673   -0.9121 H       1  LIG1        0.0457
     14 H           2.1878    0.5818    0.9370 H       1  LIG1        0.0457
     15 H           0.1692    1.9551    0.0000 H       1  LIG1        0.0832
     16 H          -1.6644    1.7255    0.0000 H       1  LIG1        0.1669
     17 H          -2.9164    0.0286    0.0000 H       1  LIG1        0.1027
@<TRIPOS>BOND
     1     1     2    1
     2     2     3   ar
     3     3     4   ar
     4     4     5   ar
     5     5     6   ar
     6     6     7   ar
     7     7     8   ar
     8     4     8   ar
     9     8     9   ar
    10     9    10   ar
    11     2    10   ar
    12    10    11    2
    13     1    12    1
    14     1    13    1
    15     1    14    1
    16     3    15    1
    17     5    16    1
    18     6    17    1
