@<TRIPOS>MOLECULE
c1nc2ccccc2[nH]1
 15 16 0 0 0
SMALL
GASTEIGER
Energy = 0

@<TRIPOS>ATOM
      1 N           0.9118   -0.6674    0.0000 N.ar    1  LIG1       -0.3444
      2 C           1.3968    0.0000    0.0000 C.ar    1  LIG1        0.0944
      3 N           0.9118    0.6674    0.0000 N.ar    1  LIG1       -0.2359
      4 C           0.1272    0.4125    0.0000 C.ar    1  LIG1        0.0888
      5 C          -0.5873    0.8250    0.0000 C.ar    1  LIG1       -0.0342
      6 C          -1.3017    0.4125    0.0000 C.ar    1  LIG1       -0.0596
      7 C          -1.3017   -0.4125    0.0000 C.ar    1  LIG1       -0.0597
      8 C          -0.5873   -0.8250    0.0000 C.ar    1  LIG1       -0.0363
      9 C           0.1272   -0.4125    0.0000 C.ar    1  LIG1        0.0660
     10 H           1.2463   -1.6969    0.0000 H       1  LIG1        0.1668
     11 H           2.4983    0.0000    0.0000 H       1  LIG1        0.1027
     12 H          -0.5873    1.9265    0.0000 H       1  LIG1        0.0639
     13 H          -2.2556    0.9632    0.0000 H       1  LIG1        0.0618
     14 H          -2.2556   -0.9632    0.0000 H       1  LIG1        0.0618
     15 H          -0.5873   -1.9265    0.0000 H       1  LIG1        0.0639
@<TRIPOS>BOND
     1     1     2   ar
     2     2     3   ar
     3     3     4   ar
     4     4     5   ar
     5     5     6   ar
     6     6     7   ar
     7     7     8   ar
     8     8     9   ar
     9     1     9   ar
    10     4     9   ar
    11     1    10    1
    12     2    11    1
    13     5    12    1
    14     6    13    1
    15     7    14    1
    16     8    15    1
