@<TRIPOS>MOLECULE
Cn1c(=O)ccc2cocc12
 18 19 0 0 0
SMALL
GASTEIGER
Energy = 0

@<TRIPOS>ATOM
      1 C           0.3159   -1.4060    0.0000 C.3     1  LIG1        0.0154
      2 N           0.3159   -0.5810    0.0000 N.ar    1  LIG1       -0.3085
      3 C           1.0304   -0.1685    0.0000 C.ar    1  LIG1        0.2516
      4 O           1.7449   -0.5810    0.0000 O.2     1  LIG1       -0.2677
      5 C           1.0304    0.6565    0.0000 C.ar    1  LIG1        0.0037
      6 C           0.3159    1.0690    0.0000 C.ar    1  LIG1       -0.0445
      7 C          -0.3985    0.6565    0.0000 C.ar    1  LIG1        0.0365
      8 C          -1.1832    0.9114    0.0000 C.ar    1  LIG1        0.1009
      9 O          -1.6681    0.2440    0.0000 O.2     1  LIG1       -0.4683
     10 C          -1.1832   -0.4235    0.0000 C.ar    1  LIG1        0.1158
     11 C          -0.3985   -0.1685    0.0000 C.ar    1  LIG1        0.0897
     12 H           1.3905   -1.7865    0.0000 H       1  LIG1        0.0457
     13 H          -0.2426   -1.8007   -0.9121 H       1  LIG1        0.0457
     14 H          -0.2143   -1.7807    0.9370 H       1  LIG1        0.0457
     15 H           1.9843    1.2073    0.0000 H       1  LIG1        0.0672
     16 H           0.3159    2.1705    0.0000 H       1  LIG1        0.0627
     17 H          -1.5236    1.9590    0.0000 H       1  LIG1        0.1036
     18 H          -1.5236   -1.4711    0.0000 H       1  LIG1        0.1051
@<TRIPOS>BOND
     1     1     2    1
     2     2     3   ar
     3     3     4    2
     4     3     5   ar
     5     5     6   ar
     6     6     7   ar
     7     7     8   ar
     8     8     9   ar
     9     9    10   ar
    10    10    11   ar
    11     2    11   ar
    12     7    11   ar
    13     1    12    1
    14     1    13    1
    15     1    14    1
    16     5    15    1
    17     6    16    1
    18     8    17    1
    19    10    18    1
