@<TRIPOS>MOLECULE
c1nc2cnsc2o1
 10 11 0 0 0
SMALL
GASTEIGER
Energy = 0

@<TRIPOS>ATOM
      1 O           0.8940   -0.5489    0.0000 O.2     1  LIG1       -0.4339
      2 C           1.3789    0.1186    0.0000 C.ar    1  LIG1        0.1840
      3 N           0.8940    0.7860    0.0000 N.ar    1  LIG1       -0.2139
      4 C           0.1094    0.5311    0.0000 C.ar    1  LIG1        0.1362
      5 C           0.1094   -0.2939    0.0000 C.ar    1  LIG1        0.2117
      6 S          -0.6753   -0.5489    0.0000 S.2     1  LIG1        0.0516
      7 N          -1.1602    0.1186    0.0000 N.ar    1  LIG1       -0.2130
      8 C          -0.6753    0.7860    0.0000 C.ar    1  LIG1        0.0659
      9 H           2.4804    0.1186    0.0000 H       1  LIG1        0.1255
     10 H          -1.0157    1.8336    0.0000 H       1  LIG1        0.0859
@<TRIPOS>BOND
     1     1     2   ar
     2     2     3   ar
     3     3     4   ar
     4     4     5   ar
     5     1     5   ar
     6     5     6   ar
     7     6     7   ar
     8     7     8   ar
     9     4     8   ar
    10     2     9    1
    11     8    10    1
