@<TRIPOS>MOLECULE
Cn1cc2ocnc2nc1=O
 16 17 0 0 0
SMALL
GASTEIGER
Energy = 0

@<TRIPOS>ATOM
      1 C           1.6162    0.8441    0.0000 C.3     1  LIG1        0.0163
      2 N           0.9018    0.4316    0.0000 N.ar    1  LIG1       -0.2985
      3 C           0.1873    0.8441    0.0000 C.ar    1  LIG1        0.0551
      4 C          -0.5272    0.4316    0.0000 C.ar    1  LIG1        0.1899
      5 O          -1.3118    0.6865    0.0000 O.2     1  LIG1       -0.4393
      6 C          -1.7967    0.0191    0.0000 C.ar    1  LIG1        0.1847
      7 N          -1.3118   -0.6484    0.0000 N.ar    1  LIG1       -0.1963
      8 C          -0.5272   -0.3934    0.0000 C.ar    1  LIG1        0.2046
      9 N           0.1873   -0.8059    0.0000 N.ar    1  LIG1       -0.1699
     10 C           0.9018   -0.3934    0.0000 C.ar    1  LIG1        0.3503
     11 O           1.6162   -0.8059    0.0000 O.2     1  LIG1       -0.2444
     12 H           1.4084    1.9650    0.0000 H       1  LIG1        0.0457
     13 H           2.2372    0.5578   -0.9121 H       1  LIG1        0.0457
     14 H           2.2059    0.5723    0.9370 H       1  LIG1        0.0457
     15 H           0.1873    1.9456    0.0000 H       1  LIG1        0.0849
     16 H          -2.8982    0.0191    0.0000 H       1  LIG1        0.1255
@<TRIPOS>BOND
     1     1     2    1
     2     2     3   ar
     3     3     4   ar
     4     4     5   ar
     5     5     6   ar
     6     6     7   ar
     7     7     8   ar
     8     4     8   ar
     9     8     9   ar
    10     9    10   ar
    11     2    10   ar
    12    10    11    2
    13     1    12    1
    14     1    13    1
    15     1    14    1
    16     3    15    1
    17     6    16    1
