@<TRIPOS>MOLECULE
O=c1nc2nccnc2c[nH]1
 15 16 0 0 0
SMALL
GASTEIGER
Energy = 0

@<TRIPOS>ATOM
      1 O           1.8955   -0.7277    0.0000 O.2     1  LIG1       -0.2447
      2 C           1.1810   -0.3152    0.0000 C.ar    1  LIG1        0.3478
      3 N           1.1810    0.5098    0.0000 N.ar    1  LIG1       -0.3108
      4 C           0.4666    0.9223    0.0000 C.ar    1  LIG1        0.0354
      5 C          -0.2479    0.5098    0.0000 C.ar    1  LIG1        0.1240
      6 N          -0.9624    0.9223    0.0000 N.ar    1  LIG1       -0.2489
      7 C          -1.6768    0.5098    0.0000 C.ar    1  LIG1        0.0465
      8 C          -1.6768   -0.3152    0.0000 C.ar    1  LIG1        0.0481
      9 N          -0.9624   -0.7277    0.0000 N.ar    1  LIG1       -0.2327
     10 C          -0.2479   -0.3152    0.0000 C.ar    1  LIG1        0.1849
     11 N           0.4666   -0.7277    0.0000 N.ar    1  LIG1       -0.1718
     12 H           2.1185    1.0510    0.0000 H       1  LIG1        0.1699
     13 H           0.4666    2.0238    0.0000 H       1  LIG1        0.0831
     14 H          -2.6307    1.0605    0.0000 H       1  LIG1        0.0845
     15 H          -2.6307   -0.8659    0.0000 H       1  LIG1        0.0846
@<TRIPOS>BOND
     1     1     2    2
     2     2     3   ar
     3     3     4   ar
     4     4     5   ar
     5     5     6   ar
     6     6     7   ar
     7     7     8   ar
     8     8     9   ar
     9     9    10   ar
    10     5    10   ar
    11    10    11   ar
    12     2    11   ar
    13     3    12    1
    14     4    13    1
    15     7    14    1
    16     8    15    1
