@<TRIPOS>MOLECULE
O=c1occ2ncccn12
 14 15 0 0 0
SMALL
GASTEIGER
Energy = 0

@<TRIPOS>ATOM
      1 O           1.0178   -1.2824    0.0000 O.2     1  LIG1       -0.2222
      2 C           0.7628   -0.4978    0.0000 C.ar    1  LIG1        0.4259
      3 O           1.2478    0.1697    0.0000 O.2     1  LIG1       -0.4134
      4 C           0.7628    0.8371    0.0000 C.ar    1  LIG1        0.1402
      5 C          -0.0218    0.5822    0.0000 C.ar    1  LIG1        0.1782
      6 N          -0.7363    0.9947    0.0000 N.ar    1  LIG1       -0.2346
      7 C          -1.4507    0.5822    0.0000 C.ar    1  LIG1        0.0314
      8 C          -1.4507   -0.2428    0.0000 C.ar    1  LIG1       -0.0268
      9 C          -0.7363   -0.6553    0.0000 C.ar    1  LIG1        0.0191
     10 N          -0.0218   -0.2428    0.0000 N.ar    1  LIG1       -0.2342
     11 H           1.1031    1.8847    0.0000 H       1  LIG1        0.1069
     12 H          -2.4046    1.1329    0.0000 H       1  LIG1        0.0831
     13 H          -2.4046   -0.7935    0.0000 H       1  LIG1        0.0647
     14 H          -0.7363   -1.7568    0.0000 H       1  LIG1        0.0816
@<TRIPOS>BOND
     1     1     2    2
     2     2     3   ar
     3     3     4   ar
     4     4     5   ar
     5     5     6   ar
     6     6     7   ar
     7     7     8   ar
     8     8     9   ar
     9     9    10   ar
    10     2    10   ar
    11     5    10   ar
    12     4    11    1
    13     7    12    1
    14     8    13    1
    15     9    14    1
