@<TRIPOS>MOLECULE
O=c1[nH]ccc2cc[nH]c(=O)c12
 18 19 0 0 0
SMALL
GASTEIGER
Energy = 0

@<TRIPOS>ATOM
      1 O           0.7145   -1.3012    0.0000 O.2     1  LIG1       -0.2671
      2 C           0.7145   -0.4762    0.0000 C.ar    1  LIG1        0.2617
      3 N           1.4289   -0.0637    0.0000 N.ar    1  LIG1       -0.3284
      4 C           1.4289    0.7613    0.0000 C.ar    1  LIG1        0.0055
      5 C           0.7145    1.1738    0.0000 C.ar    1  LIG1       -0.0376
      6 C           0.0000    0.7613    0.0000 C.ar    1  LIG1       -0.0047
      7 C           0.0000   -0.0637    0.0000 C.ar    1  LIG1        0.1106
      8 C          -0.7145   -0.4762    0.0000 C.ar    1  LIG1        0.2617
      9 O          -0.7145   -1.3012    0.0000 O.2     1  LIG1       -0.2671
     10 N          -1.4289   -0.0637    0.0000 N.ar    1  LIG1       -0.3284
     11 C          -1.4289    0.7613    0.0000 C.ar    1  LIG1        0.0055
     12 C          -0.7145    1.1738    0.0000 C.ar    1  LIG1       -0.0376
     13 H           2.3664   -0.6049    0.0000 H       1  LIG1        0.1683
     14 H           2.3828    1.3120    0.0000 H       1  LIG1        0.0808
     15 H           0.7145    2.2753    0.0000 H       1  LIG1        0.0638
     16 H          -2.3664   -0.6049    0.0000 H       1  LIG1        0.1683
     17 H          -2.3828    1.3120    0.0000 H       1  LIG1        0.0808
     18 H          -0.7145    2.2753    0.0000 H       1  LIG1        0.0638
@<TRIPOS>BOND
     1     1     2    2
     2     2     3   ar
     3     3     4   ar
     4     4     5   ar
     5     5     6   ar
     6     6     7   ar
     7     2     7   ar
     8     7     8   ar
     9     8     9    2
    10     8    10   ar
    11    10    11   ar
    12    11    12   ar
    13     6    12   ar
    14     3    13    1
    15     4    14    1
    16     5    15    1
    17    10    16    1
    18    11    17    1
    19    12    18    1
