@<TRIPOS>MOLECULE
O=c1[nH]nc2cnccn12
 14 15 0 0 0
SMALL
GASTEIGER
Energy = 0

@<TRIPOS>ATOM
      1 O           1.0359   -1.2863    0.0000 O.2     1  LIG1       -0.2446
      2 C           0.7809   -0.5016    0.0000 C.ar    1  LIG1        0.3485
      3 N           1.2658    0.1658    0.0000 N.ar    1  LIG1       -0.2259
      4 N           0.7809    0.8332    0.0000 N.ar    1  LIG1       -0.1499
      5 C          -0.0037    0.5783    0.0000 C.ar    1  LIG1        0.1798
      6 C          -0.7182    0.9908    0.0000 C.ar    1  LIG1        0.0722
      7 N          -1.4326    0.5783    0.0000 N.ar    1  LIG1       -0.2581
      8 C          -1.4326   -0.2467    0.0000 C.ar    1  LIG1        0.0444
      9 C          -0.7182   -0.6592    0.0000 C.ar    1  LIG1        0.0342
     10 N          -0.0037   -0.2467    0.0000 N.ar    1  LIG1       -0.2483
     11 H           2.3483    0.1658    0.0000 H       1  LIG1        0.1937
     12 H          -0.7182    2.0923    0.0000 H       1  LIG1        0.0867
     13 H          -2.3865   -0.7974    0.0000 H       1  LIG1        0.0844
     14 H          -0.7182   -1.7607    0.0000 H       1  LIG1        0.0830
@<TRIPOS>BOND
     1     1     2    2
     2     2     3   ar
     3     3     4   ar
     4     4     5   ar
     5     5     6   ar
     6     6     7   ar
     7     7     8   ar
     8     8     9   ar
     9     9    10   ar
    10     2    10   ar
    11     5    10   ar
    12     3    11    1
    13     6    12    1
    14     8    13    1
    15     9    14    1
