@<TRIPOS>MOLECULE
Cn1cnc2cnnnc2c1=O
 17 18 0 0 0
SMALL
GASTEIGER
Energy = 0

@<TRIPOS>ATOM
      1 C           1.9263   -0.5901    0.0000 C.3     1  LIG1        0.0161
      2 N           1.2118   -0.1776    0.0000 N.ar    1  LIG1       -0.3005
      3 C           1.2118    0.6474    0.0000 C.ar    1  LIG1        0.0991
      4 N           0.4974    1.0599    0.0000 N.ar    1  LIG1       -0.2338
      5 C          -0.2171    0.6474    0.0000 C.ar    1  LIG1        0.1178
      6 C          -0.9316    1.0599    0.0000 C.ar    1  LIG1        0.0793
      7 N          -1.6460    0.6474    0.0000 N.ar    1  LIG1       -0.1356
      8 N          -1.6460   -0.1776    0.0000 N.ar    1  LIG1       -0.0425
      9 N          -0.9316   -0.5901    0.0000 N.ar    1  LIG1       -0.1223
     10 C          -0.2171   -0.1776    0.0000 C.ar    1  LIG1        0.1788
     11 C           0.4974   -0.5901    0.0000 C.ar    1  LIG1        0.2816
     12 O           0.4974   -1.4151    0.0000 O.2     1  LIG1       -0.2652
     13 H           2.7931    0.1503    0.0000 H       1  LIG1        0.0457
     14 H           1.9889   -1.2711   -0.9121 H       1  LIG1        0.0457
     15 H           1.9857   -1.2367    0.9370 H       1  LIG1        0.0457
     16 H           2.1657    1.1981    0.0000 H       1  LIG1        0.1030
     17 H          -0.9316    2.1614    0.0000 H       1  LIG1        0.0871
@<TRIPOS>BOND
     1     1     2    1
     2     2     3   ar
     3     3     4   ar
     4     4     5   ar
     5     5     6   ar
     6     6     7   ar
     7     7     8   ar
     8     8     9   ar
     9     9    10   ar
    10     5    10   ar
    11    10    11   ar
    12     2    11   ar
    13    11    12    2
    14     1    13    1
    15     1    14    1
    16     1    15    1
    17     3    16    1
    18     6    17    1
