@<TRIPOS>MOLECULE
c1cc2ccccn2c1
 16 17 0 0 0
SMALL
GASTEIGER
Energy = 0

@<TRIPOS>ATOM
      1 C           1.2710    0.4050    0.0000 C.ar    1  LIG1       -0.0452
      2 C           0.5565    0.8175    0.0000 C.ar    1  LIG1        0.0098
      3 N          -0.1580    0.4050    0.0000 N.ar    1  LIG1       -0.3230
      4 C          -0.9426    0.6600    0.0000 C.ar    1  LIG1        0.0098
      5 C          -1.4275   -0.0075    0.0000 C.ar    1  LIG1       -0.0433
      6 C          -0.9426   -0.6749    0.0000 C.ar    1  LIG1       -0.0365
      7 C          -0.1580   -0.4200    0.0000 C.ar    1  LIG1        0.0460
      8 C           0.5565   -0.8325    0.0000 C.ar    1  LIG1       -0.0378
      9 C           1.2710   -0.4200    0.0000 C.ar    1  LIG1       -0.0584
     10 H           2.2249    0.9558    0.0000 H       1  LIG1        0.0632
     11 H           0.5565    1.9190    0.0000 H       1  LIG1        0.0813
     12 H          -1.2830    1.7076    0.0000 H       1  LIG1        0.0813
     13 H          -2.5290   -0.0075    0.0000 H       1  LIG1        0.0633
     14 H          -1.2830   -1.7225    0.0000 H       1  LIG1        0.0639
     15 H           0.5565   -1.9340    0.0000 H       1  LIG1        0.0638
     16 H           2.2249   -0.9708    0.0000 H       1  LIG1        0.0619
@<TRIPOS>BOND
     1     1     2   ar
     2     2     3   ar
     3     3     4   ar
     4     4     5   ar
     5     5     6   ar
     6     6     7   ar
     7     3     7   ar
     8     7     8   ar
     9     8     9   ar
    10     1     9   ar
    11     1    10    1
    12     2    11    1
    13     4    12    1
    14     5    13    1
    15     6    14    1
    16     8    15    1
    17     9    16    1
