@<TRIPOS>MOLECULE
Cn1c(=O)ccn2cncc12
 18 19 0 0 0
SMALL
GASTEIGER
Energy = 0

@<TRIPOS>ATOM
      1 C           0.2981   -1.4118    0.0000 C.3     1  LIG1        0.0166
      2 N           0.2981   -0.5868    0.0000 N.ar    1  LIG1       -0.2962
      3 C           1.0126   -0.1743    0.0000 C.ar    1  LIG1        0.2540
      4 O           1.7271   -0.5868    0.0000 O.2     1  LIG1       -0.2676
      5 C           1.0126    0.6507    0.0000 C.ar    1  LIG1        0.0196
      6 C           0.2981    1.0632    0.0000 C.ar    1  LIG1        0.0177
      7 N          -0.4163    0.6507    0.0000 N.ar    1  LIG1       -0.2917
      8 C          -1.2010    0.9056    0.0000 C.ar    1  LIG1        0.1015
      9 N          -1.6859    0.2382    0.0000 N.ar    1  LIG1       -0.2415
     10 C          -1.2010   -0.4293    0.0000 C.ar    1  LIG1        0.0704
     11 C          -0.4163   -0.1743    0.0000 C.ar    1  LIG1        0.1400
     12 H           1.3727   -1.7923    0.0000 H       1  LIG1        0.0457
     13 H          -0.2604   -1.8065   -0.9121 H       1  LIG1        0.0457
     14 H          -0.2321   -1.7865    0.9370 H       1  LIG1        0.0457
     15 H           1.9665    1.2015    0.0000 H       1  LIG1        0.0686
     16 H           0.2981    2.1647    0.0000 H       1  LIG1        0.0815
     17 H          -1.5414    1.9532    0.0000 H       1  LIG1        0.1032
     18 H          -1.5414   -1.4769    0.0000 H       1  LIG1        0.0867
@<TRIPOS>BOND
     1     1     2    1
     2     2     3   ar
     3     3     4    2
     4     3     5   ar
     5     5     6   ar
     6     6     7   ar
     7     7     8   ar
     8     8     9   ar
     9     9    10   ar
    10    10    11   ar
    11     2    11   ar
    12     7    11   ar
    13     1    12    1
    14     1    13    1
    15     1    14    1
    16     5    15    1
    17     6    16    1
    18     8    17    1
    19    10    18    1
