@<TRIPOS>MOLECULE
Cn1ncc2c(=O)nc[nH]c12
 17 18 0 0 0
SMALL
GASTEIGER
Energy = 0

@<TRIPOS>ATOM
      1 C           1.1542   -1.4993    0.0000 C.3     1  LIG1        0.0324
      2 N           0.8992   -0.7147    0.0000 N.ar    1  LIG1       -0.2508
      3 N           1.3842   -0.0472    0.0000 N.ar    1  LIG1       -0.1773
      4 C           0.8992    0.6202    0.0000 C.ar    1  LIG1        0.0639
      5 C           0.1146    0.3653    0.0000 C.ar    1  LIG1        0.1027
      6 C           0.1146   -0.4597    0.0000 C.ar    1  LIG1        0.1424
      7 N          -0.5999   -0.8722    0.0000 N.ar    1  LIG1       -0.3305
      8 C          -1.3143   -0.4597    0.0000 C.ar    1  LIG1        0.0988
      9 N          -1.3143    0.3653    0.0000 N.ar    1  LIG1       -0.1989
     10 C          -0.5999    0.7778    0.0000 C.ar    1  LIG1        0.2837
     11 O          -0.5999    1.6028    0.0000 O.2     1  LIG1       -0.2650
     12 H           2.2938   -1.5291    0.0000 H       1  LIG1        0.0473
     13 H           0.7451   -2.0473   -0.9121 H       1  LIG1        0.0473
     14 H           0.7657   -2.0196    0.9370 H       1  LIG1        0.0473
     15 H           1.2395    1.6678    0.0000 H       1  LIG1        0.0856
     16 H          -0.5999   -1.9547    0.0000 H       1  LIG1        0.1682
     17 H          -2.2682   -1.0104    0.0000 H       1  LIG1        0.1028
@<TRIPOS>BOND
     1     1     2    1
     2     2     3   ar
     3     3     4   ar
     4     4     5   ar
     5     5     6   ar
     6     2     6   ar
     7     6     7   ar
     8     7     8   ar
     9     8     9   ar
    10     9    10   ar
    11     5    10   ar
    12    10    11    2
    13     1    12    1
    14     1    13    1
    15     1    14    1
    16     4    15    1
    17     7    16    1
    18     8    17    1
