@<TRIPOS>MOLECULE
Cn1ncc2ncsc12
 14 15 0 0 0
SMALL
GASTEIGER
Energy = 0

@<TRIPOS>ATOM
      1 C           1.0449   -1.2223    0.0000 C.3     1  LIG1        0.0315
      2 N           0.7900   -0.4376    0.0000 N.ar    1  LIG1       -0.2585
      3 N           1.2749    0.2298    0.0000 N.ar    1  LIG1       -0.1767
      4 C           0.7900    0.8972    0.0000 C.ar    1  LIG1        0.0759
      5 C           0.0053    0.6423    0.0000 C.ar    1  LIG1        0.1158
      6 C           0.0053   -0.1827    0.0000 C.ar    1  LIG1        0.1253
      7 S          -0.7793   -0.4376    0.0000 S.2     1  LIG1       -0.0562
      8 C          -1.2642    0.2298    0.0000 C.ar    1  LIG1        0.0674
      9 N          -0.7793    0.8972    0.0000 N.ar    1  LIG1       -0.2442
     10 H           2.1845   -1.2522    0.0000 H       1  LIG1        0.0473
     11 H           0.6357   -1.7702   -0.9121 H       1  LIG1        0.0473
     12 H           0.6564   -1.7425    0.9370 H       1  LIG1        0.0473
     13 H           1.1304    1.9448    0.0000 H       1  LIG1        0.0870
     14 H          -2.3657    0.2298    0.0000 H       1  LIG1        0.0908
@<TRIPOS>BOND
     1     1     2    1
     2     2     3   ar
     3     3     4   ar
     4     4     5   ar
     5     5     6   ar
     6     2     6   ar
     7     6     7   ar
     8     7     8   ar
     9     8     9   ar
    10     5     9   ar
    11     1    10    1
    12     1    11    1
    13     1    12    1
    14     4    13    1
    15     8    14    1
