@<TRIPOS>MOLECULE
c1cc2nc[nH]cc2n1
 14 15 0 0 0
SMALL
GASTEIGER
Energy = 0

@<TRIPOS>ATOM
      1 N           1.2527   -0.4080    0.0000 N.ar    1  LIG1       -0.3502
      2 C           1.2527    0.4170    0.0000 C.ar    1  LIG1        0.0940
      3 N           0.5382    0.8295    0.0000 N.ar    1  LIG1       -0.2358
      4 C          -0.1762    0.4170    0.0000 C.ar    1  LIG1        0.0936
      5 C          -0.9608    0.6719    0.0000 C.ar    1  LIG1       -0.0160
      6 C          -1.4458    0.0045    0.0000 C.ar    1  LIG1        0.0304
      7 N          -0.9608   -0.6630    0.0000 N.ar    1  LIG1       -0.2519
      8 C          -0.1762   -0.4080    0.0000 C.ar    1  LIG1        0.1051
      9 C           0.5382   -0.8205    0.0000 C.ar    1  LIG1        0.0304
     10 H           2.1902   -0.9493    0.0000 H       1  LIG1        0.1662
     11 H           2.2066    0.9678    0.0000 H       1  LIG1        0.1027
     12 H          -1.3011    1.7195    0.0000 H       1  LIG1        0.0655
     13 H          -2.5473    0.0045    0.0000 H       1  LIG1        0.0830
     14 H           0.5382   -1.9220    0.0000 H       1  LIG1        0.0829
@<TRIPOS>BOND
     1     1     2   ar
     2     2     3   ar
     3     3     4   ar
     4     4     5   ar
     5     5     6   ar
     6     6     7   ar
     7     7     8   ar
     8     4     8   ar
     9     8     9   ar
    10     1     9   ar
    11     1    10    1
    12     2    11    1
    13     5    12    1
    14     6    13    1
    15     9    14    1
