@<TRIPOS>MOLECULE
Cn1[nH]cc2c(=O)ncnc12
 17 18 0 0 0
SMALL
GASTEIGER
Energy = 0

@<TRIPOS>ATOM
      1 C           1.1542   -1.4993    0.0000 C.3     1  LIG1        0.0303
      2 N           0.8992   -0.7147    0.0000 N.ar    1  LIG1       -0.2723
      3 N           1.3842   -0.0472    0.0000 N.ar    1  LIG1       -0.3025
      4 C           0.8992    0.6202    0.0000 C.ar    1  LIG1        0.0350
      5 C           0.1146    0.3653    0.0000 C.ar    1  LIG1        0.1022
      6 C          -0.5999    0.7778    0.0000 C.ar    1  LIG1        0.2838
      7 O          -0.5999    1.6028    0.0000 O.2     1  LIG1       -0.2650
      8 N          -1.3143    0.3653    0.0000 N.ar    1  LIG1       -0.1969
      9 C          -1.3143   -0.4597    0.0000 C.ar    1  LIG1        0.1223
     10 N          -0.5999   -0.8722    0.0000 N.ar    1  LIG1       -0.2161
     11 C           0.1146   -0.4597    0.0000 C.ar    1  LIG1        0.1632
     12 H           2.2938   -1.5291    0.0000 H       1  LIG1        0.0473
     13 H           0.7451   -2.0473   -0.9121 H       1  LIG1        0.0473
     14 H           0.7657   -2.0196    0.9370 H       1  LIG1        0.0473
     15 H           2.4667   -0.0472    0.0000 H       1  LIG1        0.1863
     16 H           1.2395    1.6678    0.0000 H       1  LIG1        0.0831
     17 H          -2.2682   -1.0104    0.0000 H       1  LIG1        0.1049
@<TRIPOS>BOND
     1     1     2    1
     2     2     3   ar
     3     3     4   ar
     4     4     5   ar
     5     5     6   ar
     6     6     7    2
     7     6     8   ar
     8     8     9   ar
     9     9    10   ar
    10    10    11   ar
    11     2    11   ar
    12     5    11   ar
    13     1    12    1
    14     1    13    1
    15     1    14    1
    16     3    15    1
    17     4    16    1
    18     9    17    1
