@<TRIPOS>MOLECULE
Cn1[nH]cc2ccc(=O)nc12
 18 19 0 0 0
SMALL
GASTEIGER
Energy = 0

@<TRIPOS>ATOM
      1 C           1.2966   -1.2155    0.0000 C.3     1  LIG1        0.0303
      2 N           1.0417   -0.4308    0.0000 N.ar    1  LIG1       -0.2724
      3 N           1.5266    0.2366    0.0000 N.ar    1  LIG1       -0.3027
      4 C           1.0417    0.9040    0.0000 C.ar    1  LIG1        0.0297
      5 C           0.2570    0.6491    0.0000 C.ar    1  LIG1        0.0364
      6 C          -0.4574    1.0616    0.0000 C.ar    1  LIG1       -0.0444
      7 C          -1.1719    0.6491    0.0000 C.ar    1  LIG1        0.0054
      8 C          -1.1719   -0.1759    0.0000 C.ar    1  LIG1        0.2721
      9 O          -1.8864   -0.5884    0.0000 O.2     1  LIG1       -0.2658
     10 N          -0.4574   -0.5884    0.0000 N.ar    1  LIG1       -0.1897
     11 C           0.2570   -0.1759    0.0000 C.ar    1  LIG1        0.1602
     12 H           2.4362   -1.2454    0.0000 H       1  LIG1        0.0473
     13 H           0.8874   -1.7634   -0.9121 H       1  LIG1        0.0473
     14 H           0.9081   -1.7357    0.9370 H       1  LIG1        0.0473
     15 H           2.6091    0.2366    0.0000 H       1  LIG1        0.1863
     16 H           1.3821    1.9516    0.0000 H       1  LIG1        0.0830
     17 H          -0.4574    2.1631    0.0000 H       1  LIG1        0.0627
     18 H          -2.1258    1.1999    0.0000 H       1  LIG1        0.0672
@<TRIPOS>BOND
     1     1     2    1
     2     2     3   ar
     3     3     4   ar
     4     4     5   ar
     5     5     6   ar
     6     6     7   ar
     7     7     8   ar
     8     8     9    2
     9     8    10   ar
    10    10    11   ar
    11     2    11   ar
    12     5    11   ar
    13     1    12    1
    14     1    13    1
    15     1    14    1
    16     3    15    1
    17     4    16    1
    18     6    17    1
    19     7    18    1
