@<TRIPOS>MOLECULE
c1nc2ccc[nH]c2n1
 14 15 0 0 0
SMALL
GASTEIGER
Energy = 0

@<TRIPOS>ATOM
      1 N           0.5770   -0.8106    0.0000 N.ar    1  LIG1       -0.3446
      2 C           1.2914   -0.3981    0.0000 C.ar    1  LIG1        0.0036
      3 C           1.2914    0.4269    0.0000 C.ar    1  LIG1       -0.0436
      4 C           0.5770    0.8394    0.0000 C.ar    1  LIG1       -0.0313
      5 C          -0.1375    0.4269    0.0000 C.ar    1  LIG1        0.1078
      6 N          -0.9221    0.6819    0.0000 N.ar    1  LIG1       -0.2323
      7 C          -1.4070    0.0144    0.0000 C.ar    1  LIG1        0.1191
      8 N          -0.9221   -0.6530    0.0000 N.ar    1  LIG1       -0.2164
      9 C          -0.1375   -0.3981    0.0000 C.ar    1  LIG1        0.1582
     10 H           0.5770   -1.8931    0.0000 H       1  LIG1        0.1668
     11 H           2.2453   -0.9488    0.0000 H       1  LIG1        0.0807
     12 H           2.2453    0.9776    0.0000 H       1  LIG1        0.0633
     13 H           0.5770    1.9409    0.0000 H       1  LIG1        0.0640
     14 H          -2.5085    0.0144    0.0000 H       1  LIG1        0.1048
@<TRIPOS>BOND
     1     1     2   ar
     2     2     3   ar
     3     3     4   ar
     4     4     5   ar
     5     5     6   ar
     6     6     7   ar
     7     7     8   ar
     8     8     9   ar
     9     1     9   ar
    10     5     9   ar
    11     1    10    1
    12     2    11    1
    13     3    12    1
    14     4    13    1
    15     7    14    1
