@<TRIPOS>MOLECULE
Cn1cc2cn[nH]c(=O)c2n1
 17 18 0 0 0
SMALL
GASTEIGER
Energy = 0

@<TRIPOS>ATOM
      1 C           2.1311    0.1925    0.0000 C.3     1  LIG1        0.0302
      2 N           1.3061    0.1925    0.0000 N.ar    1  LIG1       -0.2731
      3 C           0.8212    0.8599    0.0000 C.ar    1  LIG1        0.0346
      4 C           0.0366    0.6050    0.0000 C.ar    1  LIG1        0.0448
      5 C          -0.6779    1.0175    0.0000 C.ar    1  LIG1        0.0587
      6 N          -1.3924    0.6050    0.0000 N.ar    1  LIG1       -0.1786
      7 N          -1.3924   -0.2200    0.0000 N.ar    1  LIG1       -0.2414
      8 C          -0.6779   -0.6325    0.0000 C.ar    1  LIG1        0.2925
      9 O          -0.6779   -1.4575    0.0000 O.2     1  LIG1       -0.2640
     10 C           0.0366   -0.2200    0.0000 C.ar    1  LIG1        0.1596
     11 N           0.8212   -0.4750    0.0000 N.ar    1  LIG1       -0.1659
     12 H           2.5116    1.2671    0.0000 H       1  LIG1        0.0473
     13 H           2.5258   -0.3660   -0.9121 H       1  LIG1        0.0473
     14 H           2.5058   -0.3377    0.9370 H       1  LIG1        0.0473
     15 H           1.1616    1.9075    0.0000 H       1  LIG1        0.0833
     16 H          -0.6779    2.1190    0.0000 H       1  LIG1        0.0854
     17 H          -2.3299   -0.7613    0.0000 H       1  LIG1        0.1922
@<TRIPOS>BOND
     1     1     2    1
     2     2     3   ar
     3     3     4   ar
     4     4     5   ar
     5     5     6   ar
     6     6     7   ar
     7     7     8   ar
     8     8     9    2
     9     8    10   ar
    10     4    10   ar
    11    10    11   ar
    12     2    11   ar
    13     1    12    1
    14     1    13    1
    15     1    14    1
    16     3    15    1
    17     5    16    1
    18     7    17    1
