@<TRIPOS>MOLECULE
Cn1c(=O)ncc2cnccc12
 19 20 0 0 0
SMALL
GASTEIGER
Energy = 0

@<TRIPOS>ATOM
      1 C           0.4270   -1.4357    0.0000 C.3     1  LIG1        0.0167
      2 N           0.4270   -0.6107    0.0000 N.ar    1  LIG1       -0.2950
      3 C           1.1415   -0.1982    0.0000 C.ar    1  LIG1        0.3486
      4 O           1.8559   -0.6107    0.0000 O.2     1  LIG1       -0.2445
      5 N           1.1415    0.6268    0.0000 N.ar    1  LIG1       -0.2007
      6 C           0.4270    1.0393    0.0000 C.ar    1  LIG1        0.0436
      7 C          -0.2875    0.6268    0.0000 C.ar    1  LIG1        0.0349
      8 C          -1.0019    1.0393    0.0000 C.ar    1  LIG1        0.0381
      9 N          -1.7164    0.6268    0.0000 N.ar    1  LIG1       -0.2625
     10 C          -1.7164   -0.1982    0.0000 C.ar    1  LIG1        0.0295
     11 C          -1.0019   -0.6107    0.0000 C.ar    1  LIG1       -0.0193
     12 C          -0.2875   -0.1982    0.0000 C.ar    1  LIG1        0.0575
     13 H           1.5016   -1.8162    0.0000 H       1  LIG1        0.0457
     14 H          -0.1315   -1.8304   -0.9121 H       1  LIG1        0.0457
     15 H          -0.1032   -1.8104    0.9370 H       1  LIG1        0.0457
     16 H           0.4270    2.1408    0.0000 H       1  LIG1        0.0838
     17 H          -1.0019    2.1408    0.0000 H       1  LIG1        0.0837
     18 H          -2.6703   -0.7490    0.0000 H       1  LIG1        0.0830
     19 H          -1.0019   -1.7122    0.0000 H       1  LIG1        0.0653
@<TRIPOS>BOND
     1     1     2    1
     2     2     3   ar
     3     3     4    2
     4     3     5   ar
     5     5     6   ar
     6     6     7   ar
     7     7     8   ar
     8     8     9   ar
     9     9    10   ar
    10    10    11   ar
    11    11    12   ar
    12     2    12   ar
    13     7    12   ar
    14     1    13    1
    15     1    14    1
    16     1    15    1
    17     6    16    1
    18     8    17    1
    19    10    18    1
    20    11    19    1
