@<TRIPOS>MOLECULE
Cn1cc2cnc(=O)[nH]c2c1
 18 19 0 0 0
SMALL
GASTEIGER
Energy = 0

@<TRIPOS>ATOM
      1 C           2.2935   -0.0987    0.0000 C.3     1  LIG1        0.0114
      2 N           1.4685   -0.0987    0.0000 N.ar    1  LIG1       -0.3536
      3 C           0.9836    0.5688    0.0000 C.ar    1  LIG1        0.0284
      4 C           0.1990    0.3138    0.0000 C.ar    1  LIG1        0.0695
      5 N          -0.5155    0.7263    0.0000 N.ar    1  LIG1       -0.3045
      6 C          -1.2300    0.3138    0.0000 C.ar    1  LIG1        0.3463
      7 O          -1.9444    0.7263    0.0000 O.2     1  LIG1       -0.2447
      8 N          -1.2300   -0.5112    0.0000 N.ar    1  LIG1       -0.2008
      9 C          -0.5155   -0.9237    0.0000 C.ar    1  LIG1        0.0435
     10 C           0.1990   -0.5112    0.0000 C.ar    1  LIG1        0.0341
     11 C           0.9836   -0.7661    0.0000 C.ar    1  LIG1        0.0149
     12 H           2.6740    0.9759    0.0000 H       1  LIG1        0.0455
     13 H           2.6882   -0.6572   -0.9121 H       1  LIG1        0.0455
     14 H           2.6682   -0.6289    0.9370 H       1  LIG1        0.0455
     15 H           1.3240    1.6164    0.0000 H       1  LIG1        0.0830
     16 H          -0.5155    1.8088    0.0000 H       1  LIG1        0.1705
     17 H          -0.5155   -2.0252    0.0000 H       1  LIG1        0.0838
     18 H           1.3240   -1.8137    0.0000 H       1  LIG1        0.0816
@<TRIPOS>BOND
     1     1     2    1
     2     2     3   ar
     3     3     4   ar
     4     4     5   ar
     5     5     6   ar
     6     6     7    2
     7     6     8   ar
     8     8     9   ar
     9     9    10   ar
    10     4    10   ar
    11    10    11   ar
    12     2    11   ar
    13     1    12    1
    14     1    13    1
    15     1    14    1
    16     3    15    1
    17     5    16    1
    18     9    17    1
    19    11    18    1
