@<TRIPOS>MOLECULE
Cn1ccc2nncn2c1=O
 17 18 0 0 0
SMALL
GASTEIGER
Energy = 0

@<TRIPOS>ATOM
      1 C           1.7734   -0.5708    0.0000 C.3     1  LIG1        0.0161
      2 N           1.0589   -0.1583    0.0000 N.ar    1  LIG1       -0.3031
      3 C           1.0589    0.6667    0.0000 C.ar    1  LIG1        0.0125
      4 C           0.3444    1.0792    0.0000 C.ar    1  LIG1       -0.0006
      5 C          -0.3700    0.6667    0.0000 C.ar    1  LIG1        0.1662
      6 N          -1.1547    0.9216    0.0000 N.ar    1  LIG1       -0.1295
      7 N          -1.6396    0.2542    0.0000 N.ar    1  LIG1       -0.1371
      8 C          -1.1547   -0.4133    0.0000 C.ar    1  LIG1        0.1283
      9 N          -0.3700   -0.1583    0.0000 N.ar    1  LIG1       -0.2331
     10 C           0.3444   -0.5708    0.0000 C.ar    1  LIG1        0.3358
     11 O           0.3444   -1.3958    0.0000 O.2     1  LIG1       -0.2459
     12 H           2.6402    0.1696    0.0000 H       1  LIG1        0.0457
     13 H           1.8360   -1.2518   -0.9121 H       1  LIG1        0.0457
     14 H           1.8328   -1.2174    0.9370 H       1  LIG1        0.0457
     15 H           2.0128    1.2175    0.0000 H       1  LIG1        0.0811
     16 H           0.3444    2.1807    0.0000 H       1  LIG1        0.0669
     17 H          -1.4951   -1.4609    0.0000 H       1  LIG1        0.1053
@<TRIPOS>BOND
     1     1     2    1
     2     2     3   ar
     3     3     4   ar
     4     4     5   ar
     5     5     6   ar
     6     6     7   ar
     7     7     8   ar
     8     8     9   ar
     9     5     9   ar
    10     9    10   ar
    11     2    10   ar
    12    10    11    2
    13     1    12    1
    14     1    13    1
    15     1    14    1
    16     3    15    1
    17     4    16    1
    18     8    17    1
