@<TRIPOS>MOLECULE
O=c1nnc2ccccc2[nH]1
 16 17 0 0 0
SMALL
GASTEIGER
Energy = 0

@<TRIPOS>ATOM
      1 O           1.8619    0.7379    0.0000 O.2     1  LIG1       -0.2431
      2 C           1.1475    0.3254    0.0000 C.ar    1  LIG1        0.3646
      3 N           0.4330    0.7379    0.0000 N.ar    1  LIG1       -0.3033
      4 C          -0.2815    0.3254    0.0000 C.ar    1  LIG1        0.0706
      5 C          -0.9960    0.7379    0.0000 C.ar    1  LIG1       -0.0361
      6 C          -1.7104    0.3254    0.0000 C.ar    1  LIG1       -0.0597
      7 C          -1.7104   -0.4996    0.0000 C.ar    1  LIG1       -0.0596
      8 C          -0.9960   -0.9121    0.0000 C.ar    1  LIG1       -0.0325
      9 C          -0.2815   -0.4996    0.0000 C.ar    1  LIG1        0.1096
     10 N           0.4330   -0.9121    0.0000 N.ar    1  LIG1       -0.1429
     11 N           1.1475   -0.4996    0.0000 N.ar    1  LIG1       -0.0898
     12 H           0.4330    1.8204    0.0000 H       1  LIG1        0.1705
     13 H          -0.9960    1.8394    0.0000 H       1  LIG1        0.0639
     14 H          -2.6643    0.8761    0.0000 H       1  LIG1        0.0618
     15 H          -2.6643   -1.0503    0.0000 H       1  LIG1        0.0618
     16 H          -0.9960   -2.0136    0.0000 H       1  LIG1        0.0640
@<TRIPOS>BOND
     1     1     2    2
     2     2     3   ar
     3     3     4   ar
     4     4     5   ar
     5     5     6   ar
     6     6     7   ar
     7     7     8   ar
     8     8     9   ar
     9     4     9   ar
    10     9    10   ar
    11    10    11   ar
    12     2    11   ar
    13     3    12    1
    14     5    13    1
    15     6    14    1
    16     7    15    1
    17     8    16    1
