@<TRIPOS>MOLECULE
Cn1c(=O)[nH]cc2ncnc12
 17 18 0 0 0
SMALL
GASTEIGER
Energy = 0

@<TRIPOS>ATOM
      1 C           0.2883   -1.4151    0.0000 C.3     1  LIG1        0.0181
      2 N           0.2883   -0.5901    0.0000 N.ar    1  LIG1       -0.2799
      3 C           1.0027   -0.1776    0.0000 C.ar    1  LIG1        0.3280
      4 O           1.7172   -0.5901    0.0000 O.2     1  LIG1       -0.2465
      5 N           1.0027    0.6474    0.0000 N.ar    1  LIG1       -0.3122
      6 C           0.2883    1.0599    0.0000 C.ar    1  LIG1        0.0354
      7 C          -0.4262    0.6474    0.0000 C.ar    1  LIG1        0.1240
      8 N          -1.2108    0.9023    0.0000 N.ar    1  LIG1       -0.2309
      9 C          -1.6958    0.2349    0.0000 C.ar    1  LIG1        0.1191
     10 N          -1.2108   -0.4326    0.0000 N.ar    1  LIG1       -0.2160
     11 C          -0.4262   -0.1776    0.0000 C.ar    1  LIG1        0.1658
     12 H           1.3629   -1.7956    0.0000 H       1  LIG1        0.0458
     13 H          -0.2702   -1.8098   -0.9121 H       1  LIG1        0.0458
     14 H          -0.2419   -1.7898    0.9370 H       1  LIG1        0.0458
     15 H           1.9402    1.1886    0.0000 H       1  LIG1        0.1699
     16 H           0.2883    2.1614    0.0000 H       1  LIG1        0.0831
     17 H          -2.7973    0.2349    0.0000 H       1  LIG1        0.1048
@<TRIPOS>BOND
     1     1     2    1
     2     2     3   ar
     3     3     4    2
     4     3     5   ar
     5     5     6   ar
     6     6     7   ar
     7     7     8   ar
     8     8     9   ar
     9     9    10   ar
    10    10    11   ar
    11     2    11   ar
    12     7    11   ar
    13     1    12    1
    14     1    13    1
    15     1    14    1
    16     5    15    1
    17     6    16    1
    18     9    17    1
