@<TRIPOS>MOLECULE
Cn1ncnc2cnc(=O)nc12
 17 18 0 0 0
SMALL
GASTEIGER
Energy = 0

@<TRIPOS>ATOM
      1 C           0.8681   -1.4307    0.0000 C.3     1  LIG1        0.0325
      2 N           0.8681   -0.6057    0.0000 N.ar    1  LIG1       -0.2468
      3 N           1.5826   -0.1932    0.0000 N.ar    1  LIG1       -0.1582
      4 C           1.5826    0.6318    0.0000 C.ar    1  LIG1        0.1371
      5 N           0.8681    1.0443    0.0000 N.ar    1  LIG1       -0.2290
      6 C           0.1536    0.6318    0.0000 C.ar    1  LIG1        0.1276
      7 C          -0.5609    1.0443    0.0000 C.ar    1  LIG1        0.0621
      8 N          -1.2753    0.6318    0.0000 N.ar    1  LIG1       -0.1977
      9 C          -1.2753   -0.1932    0.0000 C.ar    1  LIG1        0.3696
     10 O          -1.9898   -0.6057    0.0000 O.2     1  LIG1       -0.2426
     11 N          -0.5609   -0.6057    0.0000 N.ar    1  LIG1       -0.1705
     12 C           0.1536   -0.1932    0.0000 C.ar    1  LIG1        0.1819
     13 H           1.9427   -1.8112    0.0000 H       1  LIG1        0.0473
     14 H           0.3096   -1.8254   -0.9121 H       1  LIG1        0.0473
     15 H           0.3379   -1.8054    0.9370 H       1  LIG1        0.0473
     16 H           2.5365    1.1826    0.0000 H       1  LIG1        0.1065
     17 H          -0.5609    2.1458    0.0000 H       1  LIG1        0.0854
@<TRIPOS>BOND
     1     1     2    1
     2     2     3   ar
     3     3     4   ar
     4     4     5   ar
     5     5     6   ar
     6     6     7   ar
     7     7     8   ar
     8     8     9   ar
     9     9    10    2
    10     9    11   ar
    11    11    12   ar
    12     2    12   ar
    13     6    12   ar
    14     1    13    1
    15     1    14    1
    16     1    15    1
    17     4    16    1
    18     7    17    1
