@<TRIPOS>MOLECULE
O=c1[nH]cnc2sncc12
 13 14 0 0 0
SMALL
GASTEIGER
Energy = 0

@<TRIPOS>ATOM
      1 O          -0.6157   -1.5688    0.0000 O.2     1  LIG1       -0.2671
      2 C          -0.6157   -0.7438    0.0000 C.ar    1  LIG1        0.2611
      3 N          -1.3302   -0.3313    0.0000 N.ar    1  LIG1       -0.3129
      4 C          -1.3302    0.4937    0.0000 C.ar    1  LIG1        0.0973
      5 N          -0.6157    0.9062    0.0000 N.ar    1  LIG1       -0.2285
      6 C           0.0988    0.4937    0.0000 C.ar    1  LIG1        0.1345
      7 C           0.0988   -0.3313    0.0000 C.ar    1  LIG1        0.0915
      8 C           0.8834   -0.5862    0.0000 C.ar    1  LIG1        0.0511
      9 N           1.3683    0.0812    0.0000 N.ar    1  LIG1       -0.2159
     10 S           0.8834    0.7486    0.0000 S.2     1  LIG1        0.0318
     11 H          -2.2677   -0.8726    0.0000 H       1  LIG1        0.1698
     12 H          -2.2841    1.0445    0.0000 H       1  LIG1        0.1028
     13 H           1.2238   -1.6338    0.0000 H       1  LIG1        0.0845
@<TRIPOS>BOND
     1     1     2    2
     2     2     3   ar
     3     3     4   ar
     4     4     5   ar
     5     5     6   ar
     6     6     7   ar
     7     2     7   ar
     8     7     8   ar
     9     8     9   ar
    10     9    10   ar
    11     6    10   ar
    12     3    11    1
    13     4    12    1
    14     8    13    1
