@<TRIPOS>MOLECULE
O=c1cc2ncncc2c[nH]1
 16 17 0 0 0
SMALL
GASTEIGER
Energy = 0

@<TRIPOS>ATOM
      1 O           1.9121   -0.7321    0.0000 O.2     1  LIG1       -0.2678
      2 C           1.1976   -0.3196    0.0000 C.ar    1  LIG1        0.2508
      3 N           1.1976    0.5054    0.0000 N.ar    1  LIG1       -0.3284
      4 C           0.4832    0.9179    0.0000 C.ar    1  LIG1        0.0156
      5 C          -0.2313    0.5054    0.0000 C.ar    1  LIG1        0.0347
      6 C          -0.9458    0.9179    0.0000 C.ar    1  LIG1        0.0399
      7 N          -1.6602    0.5054    0.0000 N.ar    1  LIG1       -0.2430
      8 C          -1.6602   -0.3196    0.0000 C.ar    1  LIG1        0.1166
      9 N          -0.9458   -0.7321    0.0000 N.ar    1  LIG1       -0.2352
     10 C          -0.2313   -0.3196    0.0000 C.ar    1  LIG1        0.0807
     11 C           0.4832   -0.7321    0.0000 C.ar    1  LIG1        0.0288
     12 H           2.1351    1.0466    0.0000 H       1  LIG1        0.1683
     13 H           0.4832    2.0194    0.0000 H       1  LIG1        0.0815
     14 H          -0.9458    2.0194    0.0000 H       1  LIG1        0.0837
     15 H          -2.6141   -0.8703    0.0000 H       1  LIG1        0.1047
     16 H           0.4832   -1.8336    0.0000 H       1  LIG1        0.0693
@<TRIPOS>BOND
     1     1     2    2
     2     2     3   ar
     3     3     4   ar
     4     4     5   ar
     5     5     6   ar
     6     6     7   ar
     7     7     8   ar
     8     8     9   ar
     9     9    10   ar
    10     5    10   ar
    11    10    11   ar
    12     2    11   ar
    13     3    12    1
    14     4    13    1
    15     6    14    1
    16     8    15    1
    17    11    16    1
