@<TRIPOS>MOLECULE
O=c1ncc2ncsc2[nH]1
 13 14 0 0 0
SMALL
GASTEIGER
Energy = 0

@<TRIPOS>ATOM
      1 O          -1.8859    0.6513    0.0000 O.2     1  LIG1       -0.2447
      2 C          -1.1714    0.2388    0.0000 C.ar    1  LIG1        0.3467
      3 N          -0.4570    0.6513    0.0000 N.ar    1  LIG1       -0.2989
      4 C           0.2575    0.2388    0.0000 C.ar    1  LIG1        0.1100
      5 C           0.2575   -0.5862    0.0000 C.ar    1  LIG1        0.1128
      6 C          -0.4570   -0.9987    0.0000 C.ar    1  LIG1        0.0609
      7 N          -1.1714   -0.5862    0.0000 N.ar    1  LIG1       -0.1993
      8 N           1.0421   -0.8411    0.0000 N.ar    1  LIG1       -0.2443
      9 C           1.5270   -0.1737    0.0000 C.ar    1  LIG1        0.0674
     10 S           1.0421    0.4938    0.0000 S.2     1  LIG1       -0.0577
     11 H          -0.4570    1.7338    0.0000 H       1  LIG1        0.1710
     12 H          -0.4570   -2.1002    0.0000 H       1  LIG1        0.0854
     13 H           2.6285   -0.1737    0.0000 H       1  LIG1        0.0908
@<TRIPOS>BOND
     1     1     2    2
     2     2     3   ar
     3     3     4   ar
     4     4     5   ar
     5     5     6   ar
     6     6     7   ar
     7     2     7   ar
     8     5     8   ar
     9     8     9   ar
    10     9    10   ar
    11     4    10   ar
    12     3    11    1
    13     6    12    1
    14     9    13    1
