@<TRIPOS>MOLECULE
Cn1c(=O)oc2nccnc12
 16 17 0 0 0
SMALL
GASTEIGER
Energy = 0

@<TRIPOS>ATOM
      1 C           0.8311   -1.3418    0.0000 C.3     1  LIG1        0.0197
      2 N           0.5762   -0.5572    0.0000 N.ar    1  LIG1       -0.2605
      3 C           1.0611    0.1103    0.0000 C.ar    1  LIG1        0.4234
      4 O           1.8861    0.1103    0.0000 O.2     1  LIG1       -0.2226
      5 O           0.5762    0.7777    0.0000 O.2     1  LIG1       -0.3870
      6 C          -0.2084    0.5228    0.0000 C.ar    1  LIG1        0.2685
      7 N          -0.9229    0.9353    0.0000 N.ar    1  LIG1       -0.2163
      8 C          -1.6374    0.5228    0.0000 C.ar    1  LIG1        0.0496
      9 C          -1.6374   -0.3022    0.0000 C.ar    1  LIG1        0.0482
     10 N          -0.9229   -0.7147    0.0000 N.ar    1  LIG1       -0.2315
     11 C          -0.2084   -0.3022    0.0000 C.ar    1  LIG1        0.2017
     12 H           1.9707   -1.3717    0.0000 H       1  LIG1        0.0458
     13 H           0.4219   -1.8897   -0.9121 H       1  LIG1        0.0458
     14 H           0.4426   -1.8620    0.9370 H       1  LIG1        0.0458
     15 H          -2.5913    1.0736    0.0000 H       1  LIG1        0.0846
     16 H          -2.5913   -0.8530    0.0000 H       1  LIG1        0.0846
@<TRIPOS>BOND
     1     1     2    1
     2     2     3   ar
     3     3     4    2
     4     3     5   ar
     5     5     6   ar
     6     6     7   ar
     7     7     8   ar
     8     8     9   ar
     9     9    10   ar
    10    10    11   ar
    11     2    11   ar
    12     6    11   ar
    13     1    12    1
    14     1    13    1
    15     1    14    1
    16     8    15    1
    17     9    16    1
