@<TRIPOS>MOLECULE
Cn1cnc2cncn2c1=O
 17 18 0 0 0
SMALL
GASTEIGER
Energy = 0

@<TRIPOS>ATOM
      1 C           1.7526   -0.5730    0.0000 C.3     1  LIG1        0.0175
      2 N           1.0381   -0.1605    0.0000 N.ar    1  LIG1       -0.2871
      3 C           1.0381    0.6645    0.0000 C.ar    1  LIG1        0.1018
      4 N           0.3237    1.0770    0.0000 N.ar    1  LIG1       -0.2180
      5 C          -0.3908    0.6645    0.0000 C.ar    1  LIG1        0.1624
      6 C          -1.1754    0.9194    0.0000 C.ar    1  LIG1        0.0722
      7 N          -1.6603    0.2520    0.0000 N.ar    1  LIG1       -0.2413
      8 C          -1.1754   -0.4155    0.0000 C.ar    1  LIG1        0.1061
      9 N          -0.3908   -0.1605    0.0000 N.ar    1  LIG1       -0.2351
     10 C           0.3237   -0.5730    0.0000 C.ar    1  LIG1        0.3369
     11 O           0.3237   -1.3980    0.0000 O.2     1  LIG1       -0.2459
     12 H           2.6194    0.1674    0.0000 H       1  LIG1        0.0457
     13 H           1.8152   -1.2540   -0.9121 H       1  LIG1        0.0457
     14 H           1.8120   -1.2196    0.9370 H       1  LIG1        0.0457
     15 H           1.9920    1.2152    0.0000 H       1  LIG1        0.1031
     16 H          -1.5158    1.9670    0.0000 H       1  LIG1        0.0867
     17 H          -1.5158   -1.4631    0.0000 H       1  LIG1        0.1034
@<TRIPOS>BOND
     1     1     2    1
     2     2     3   ar
     3     3     4   ar
     4     4     5   ar
     5     5     6   ar
     6     6     7   ar
     7     7     8   ar
     8     8     9   ar
     9     5     9   ar
    10     9    10   ar
    11     2    10   ar
    12    10    11    2
    13     1    12    1
    14     1    13    1
    15     1    14    1
    16     3    15    1
    17     6    16    1
    18     8    17    1
