@<TRIPOS>MOLECULE
c1occ2nnccc12
 13 14 0 0 0
SMALL
GASTEIGER
Energy = 0

@<TRIPOS>ATOM
      1 O           1.4126    0.0213    0.0000 O.2     1  LIG1       -0.4682
      2 C           0.9277    0.6887    0.0000 C.ar    1  LIG1        0.1010
      3 C           0.1431    0.4338    0.0000 C.ar    1  LIG1        0.0414
      4 C          -0.5714    0.8463    0.0000 C.ar    1  LIG1       -0.0296
      5 C          -1.2859    0.4338    0.0000 C.ar    1  LIG1        0.0507
      6 N          -1.2859   -0.3912    0.0000 N.ar    1  LIG1       -0.1570
      7 N          -0.5714   -0.8037    0.0000 N.ar    1  LIG1       -0.1461
      8 C           0.1431   -0.3912    0.0000 C.ar    1  LIG1        0.1308
      9 C           0.9277   -0.6462    0.0000 C.ar    1  LIG1        0.1193
     10 H           1.2681    1.7363    0.0000 H       1  LIG1        0.1036
     11 H          -0.5714    1.9478    0.0000 H       1  LIG1        0.0641
     12 H          -2.2398    0.9846    0.0000 H       1  LIG1        0.0848
     13 H           1.2681   -1.6938    0.0000 H       1  LIG1        0.1052
@<TRIPOS>BOND
     1     1     2   ar
     2     2     3   ar
     3     3     4   ar
     4     4     5   ar
     5     5     6   ar
     6     6     7   ar
     7     7     8   ar
     8     3     8   ar
     9     8     9   ar
    10     1     9   ar
    11     2    10    1
    12     4    11    1
    13     5    12    1
    14     9    13    1
