@<TRIPOS>MOLECULE
c1nc2ccccc2s1
 14 15 0 0 0
SMALL
GASTEIGER
Energy = 0

@<TRIPOS>ATOM
      1 S           0.7853   -0.5748    0.0000 S.2     1  LIG1       -0.0754
      2 C           1.2702    0.0926    0.0000 C.ar    1  LIG1        0.0659
      3 N           0.7853    0.7601    0.0000 N.ar    1  LIG1       -0.2474
      4 C           0.0007    0.5051    0.0000 C.ar    1  LIG1        0.0782
      5 C          -0.7138    0.9176    0.0000 C.ar    1  LIG1       -0.0352
      6 C          -1.4283    0.5051    0.0000 C.ar    1  LIG1       -0.0597
      7 C          -1.4283   -0.3199    0.0000 C.ar    1  LIG1       -0.0606
      8 C          -0.7138   -0.7324    0.0000 C.ar    1  LIG1       -0.0459
      9 C           0.0007   -0.3199    0.0000 C.ar    1  LIG1        0.0389
     10 H           2.3717    0.0926    0.0000 H       1  LIG1        0.0907
     11 H          -0.7138    2.0191    0.0000 H       1  LIG1        0.0639
     12 H          -2.3822    1.0559    0.0000 H       1  LIG1        0.0618
     13 H          -2.3822   -0.8707    0.0000 H       1  LIG1        0.0618
     14 H          -0.7138   -1.8339    0.0000 H       1  LIG1        0.0629
@<TRIPOS>BOND
     1     1     2   ar
     2     2     3   ar
     3     3     4   ar
     4     4     5   ar
     5     5     6   ar
     6     6     7   ar
     7     7     8   ar
     8     8     9   ar
     9     1     9   ar
    10     4     9   ar
    11     2    10    1
    12     5    11    1
    13     6    12    1
    14     7    13    1
    15     8    14    1
