@<TRIPOS>MOLECULE
c1nc2nocc2s1
 10 11 0 0 0
SMALL
GASTEIGER
Energy = 0

@<TRIPOS>ATOM
      1 O           1.3555   -0.0864    0.0000 O.2     1  LIG1       -0.3597
      2 C           0.8706    0.5811    0.0000 C.ar    1  LIG1        0.1401
      3 C           0.0860    0.3261    0.0000 C.ar    1  LIG1        0.0982
      4 S          -0.6986    0.5811    0.0000 S.2     1  LIG1       -0.0706
      5 C          -1.1836   -0.0864    0.0000 C.ar    1  LIG1        0.0679
      6 N          -0.6986   -0.7538    0.0000 N.ar    1  LIG1       -0.2254
      7 C           0.0860   -0.4989    0.0000 C.ar    1  LIG1        0.2093
      8 N           0.8706   -0.7538    0.0000 N.ar    1  LIG1       -0.0576
      9 H           1.2110    1.6287    0.0000 H       1  LIG1        0.1070
     10 H          -2.2851   -0.0864    0.0000 H       1  LIG1        0.0908
@<TRIPOS>BOND
     1     1     2   ar
     2     2     3   ar
     3     3     4   ar
     4     4     5   ar
     5     5     6   ar
     6     6     7   ar
     7     3     7   ar
     8     7     8   ar
     9     1     8   ar
    10     2     9    1
    11     5    10    1
