@<TRIPOS>MOLECULE
Cn1cc2sccc2nc1=O
 17 18 0 0 0
SMALL
GASTEIGER
Energy = 0

@<TRIPOS>ATOM
      1 C           1.7315    0.7671    0.0000 C.3     1  LIG1        0.0162
      2 N           1.0170    0.3546    0.0000 N.ar    1  LIG1       -0.3011
      3 C           0.3025    0.7671    0.0000 C.ar    1  LIG1        0.0248
      4 C          -0.4119    0.3546    0.0000 C.ar    1  LIG1        0.0539
      5 S          -1.1965    0.6095    0.0000 S.2     1  LIG1       -0.0936
      6 C          -1.6815   -0.0579    0.0000 C.ar    1  LIG1       -0.0216
      7 C          -1.1965   -0.7253    0.0000 C.ar    1  LIG1       -0.0285
      8 C          -0.4119   -0.4704    0.0000 C.ar    1  LIG1        0.0849
      9 N           0.3025   -0.8829    0.0000 N.ar    1  LIG1       -0.1924
     10 C           1.0170   -0.4704    0.0000 C.ar    1  LIG1        0.3487
     11 O           1.7315   -0.8829    0.0000 O.2     1  LIG1       -0.2445
     12 H           1.5238    1.8880    0.0000 H       1  LIG1        0.0457
     13 H           2.3525    0.4808   -0.9121 H       1  LIG1        0.0457
     14 H           2.3212    0.4953    0.9370 H       1  LIG1        0.0457
     15 H           0.3025    1.8686    0.0000 H       1  LIG1        0.0822
     16 H          -2.7830   -0.0579    0.0000 H       1  LIG1        0.0694
     17 H          -1.5368   -1.7729    0.0000 H       1  LIG1        0.0644
@<TRIPOS>BOND
     1     1     2    1
     2     2     3   ar
     3     3     4   ar
     4     4     5   ar
     5     5     6   ar
     6     6     7   ar
     7     7     8   ar
     8     4     8   ar
     9     8     9   ar
    10     9    10   ar
    11     2    10   ar
    12    10    11    2
    13     1    12    1
    14     1    13    1
    15     1    14    1
    16     3    15    1
    17     6    16    1
    18     7    17    1
