@<TRIPOS>MOLECULE
Cn1ccc2ccnc2c1
 18 19 0 0 0
SMALL
GASTEIGER
Energy = 0

@<TRIPOS>ATOM
      1 C           1.7855   -0.7278    0.0000 C.3     1  LIG1        0.0114
      2 N           1.0710   -0.3153    0.0000 N.ar    1  LIG1       -0.3542
      3 C           1.0710    0.5097    0.0000 C.ar    1  LIG1        0.0049
      4 C           0.3565    0.9222    0.0000 C.ar    1  LIG1       -0.0363
      5 C          -0.3580    0.5097    0.0000 C.ar    1  LIG1        0.0046
      6 C          -1.1426    0.7647    0.0000 C.ar    1  LIG1       -0.0343
      7 C          -1.6275    0.0972    0.0000 C.ar    1  LIG1        0.0289
      8 N          -1.1426   -0.5702    0.0000 N.ar    1  LIG1       -0.2535
      9 C          -0.3580   -0.3153    0.0000 C.ar    1  LIG1        0.0871
     10 C           0.3565   -0.7278    0.0000 C.ar    1  LIG1        0.0302
     11 H           2.6523    0.0126    0.0000 H       1  LIG1        0.0455
     12 H           1.8481   -1.4088   -0.9121 H       1  LIG1        0.0455
     13 H           1.8449   -1.3744    0.9370 H       1  LIG1        0.0455
     14 H           2.0249    1.0605    0.0000 H       1  LIG1        0.0809
     15 H           0.3565    2.0237    0.0000 H       1  LIG1        0.0639
     16 H          -1.4830    1.8123    0.0000 H       1  LIG1        0.0639
     17 H          -2.7290    0.0972    0.0000 H       1  LIG1        0.0830
     18 H           0.3565   -1.8293    0.0000 H       1  LIG1        0.0830
@<TRIPOS>BOND
     1     1     2    1
     2     2     3   ar
     3     3     4   ar
     4     4     5   ar
     5     5     6   ar
     6     6     7   ar
     7     7     8   ar
     8     8     9   ar
     9     5     9   ar
    10     9    10   ar
    11     2    10   ar
    12     1    11    1
    13     1    12    1
    14     1    13    1
    15     3    14    1
    16     4    15    1
    17     6    16    1
    18     7    17    1
    19    10    18    1
