@<TRIPOS>MOLECULE
O=c1cnn2ccsc2n1
 13 14 0 0 0
SMALL
GASTEIGER
Energy = 0

@<TRIPOS>ATOM
      1 O           1.8850   -0.6534    0.0000 O.2     1  LIG1       -0.2641
      2 C           1.1705   -0.2409    0.0000 C.ar    1  LIG1        0.2924
      3 C           1.1705    0.5841    0.0000 C.ar    1  LIG1        0.1146
      4 N           0.4560    0.9966    0.0000 N.ar    1  LIG1       -0.1676
      5 N          -0.2584    0.5841    0.0000 N.ar    1  LIG1       -0.2151
      6 C          -1.0431    0.8390    0.0000 C.ar    1  LIG1        0.0385
      7 C          -1.5280    0.1716    0.0000 C.ar    1  LIG1       -0.0027
      8 S          -1.0431   -0.4959    0.0000 S.2     1  LIG1       -0.0562
      9 C          -0.2584   -0.2409    0.0000 C.ar    1  LIG1        0.1970
     10 N           0.4560   -0.6534    0.0000 N.ar    1  LIG1       -0.1817
     11 H           2.1244    1.1349    0.0000 H       1  LIG1        0.0904
     12 H          -1.3835    1.8866    0.0000 H       1  LIG1        0.0836
     13 H          -2.6295    0.1716    0.0000 H       1  LIG1        0.0710
@<TRIPOS>BOND
     1     1     2    2
     2     2     3   ar
     3     3     4   ar
     4     4     5   ar
     5     5     6   ar
     6     6     7   ar
     7     7     8   ar
     8     8     9   ar
     9     5     9   ar
    10     9    10   ar
    11     2    10   ar
    12     3    11    1
    13     6    12    1
    14     7    13    1
