@<TRIPOS>MOLECULE
O=c1ccnc2cnccn12
 16 17 0 0 0
SMALL
GASTEIGER
Energy = 0

@<TRIPOS>ATOM
      1 O           0.6441   -1.4758    0.0000 O.2     1  LIG1       -0.2672
      2 C           0.6441   -0.6508    0.0000 C.ar    1  LIG1        0.2583
      3 C           1.3585   -0.2383    0.0000 C.ar    1  LIG1        0.0215
      4 C           1.3585    0.5867    0.0000 C.ar    1  LIG1        0.0351
      5 N           0.6441    0.9992    0.0000 N.ar    1  LIG1       -0.2358
      6 C          -0.0704    0.5867    0.0000 C.ar    1  LIG1        0.1585
      7 C          -0.7849    0.9992    0.0000 C.ar    1  LIG1        0.0704
      8 N          -1.4994    0.5867    0.0000 N.ar    1  LIG1       -0.2582
      9 C          -1.4994   -0.2383    0.0000 C.ar    1  LIG1        0.0443
     10 C          -0.7849   -0.6508    0.0000 C.ar    1  LIG1        0.0327
     11 N          -0.0704   -0.2383    0.0000 N.ar    1  LIG1       -0.2656
     12 H           2.3124   -0.7890    0.0000 H       1  LIG1        0.0687
     13 H           2.3124    1.1374    0.0000 H       1  LIG1        0.0832
     14 H          -0.7849    2.1007    0.0000 H       1  LIG1        0.0867
     15 H          -2.4533   -0.7891    0.0000 H       1  LIG1        0.0844
     16 H          -0.7849   -1.7523    0.0000 H       1  LIG1        0.0830
@<TRIPOS>BOND
     1     1     2    2
     2     2     3   ar
     3     3     4   ar
     4     4     5   ar
     5     5     6   ar
     6     6     7   ar
     7     7     8   ar
     8     8     9   ar
     9     9    10   ar
    10    10    11   ar
    11     2    11   ar
    12     6    11   ar
    13     3    12    1
    14     4    13    1
    15     7    14    1
    16     9    15    1
    17    10    16    1
