@<TRIPOS>MOLECULE
Cn1ccc2nccn12
 16 17 0 0 0
SMALL
GASTEIGER
Energy = 0

@<TRIPOS>ATOM
      1 C           0.9301   -1.2920    0.0000 C.3     1  LIG1        0.0287
      2 N           0.6752   -0.5074    0.0000 N.ar    1  LIG1       -0.2887
      3 C           1.1601    0.1601    0.0000 C.ar    1  LIG1        0.0257
      4 C           0.6752    0.8275    0.0000 C.ar    1  LIG1        0.0001
      5 C          -0.1094    0.5726    0.0000 C.ar    1  LIG1        0.1536
      6 N          -0.8941    0.8275    0.0000 N.ar    1  LIG1       -0.2347
      7 C          -1.3790    0.1601    0.0000 C.ar    1  LIG1        0.0481
      8 C          -0.8941   -0.5074    0.0000 C.ar    1  LIG1        0.0476
      9 N          -0.1094   -0.2524    0.0000 N.ar    1  LIG1       -0.2408
     10 H           2.0697   -1.3219    0.0000 H       1  LIG1        0.0472
     11 H           0.5209   -1.8399   -0.9121 H       1  LIG1        0.0472
     12 H           0.5416   -1.8122    0.9370 H       1  LIG1        0.0472
     13 H           2.2616    0.1601    0.0000 H       1  LIG1        0.0826
     14 H           1.0156    1.8751    0.0000 H       1  LIG1        0.0670
     15 H          -2.4805    0.1601    0.0000 H       1  LIG1        0.0846
     16 H          -1.2345   -1.5550    0.0000 H       1  LIG1        0.0845
@<TRIPOS>BOND
     1     1     2    1
     2     2     3   ar
     3     3     4   ar
     4     4     5   ar
     5     5     6   ar
     6     6     7   ar
     7     7     8   ar
     8     8     9   ar
     9     2     9   ar
    10     5     9   ar
    11     1    10    1
    12     1    11    1
    13     1    12    1
    14     3    13    1
    15     4    14    1
    16     7    15    1
    17     8    16    1
