@<TRIPOS>MOLECULE
Cn1ncc2cccnc2c1=O
 19 20 0 0 0
SMALL
GASTEIGER
Energy = 0

@<TRIPOS>ATOM
      1 C           1.8744   -0.5787    0.0000 C.3     1  LIG1        0.0340
      2 N           1.1599   -0.1662    0.0000 N.ar    1  LIG1       -0.2308
      3 N           1.1599    0.6588    0.0000 N.ar    1  LIG1       -0.1762
      4 C           0.4455    1.0713    0.0000 C.ar    1  LIG1        0.0574
      5 C          -0.2690    0.6588    0.0000 C.ar    1  LIG1        0.0255
      6 C          -0.9835    1.0713    0.0000 C.ar    1  LIG1       -0.0495
      7 C          -1.6979    0.6588    0.0000 C.ar    1  LIG1       -0.0429
      8 C          -1.6979   -0.1662    0.0000 C.ar    1  LIG1        0.0285
      9 N          -0.9835   -0.5787    0.0000 N.ar    1  LIG1       -0.2494
     10 C          -0.2690   -0.1662    0.0000 C.ar    1  LIG1        0.1381
     11 C           0.4455   -0.5787    0.0000 C.ar    1  LIG1        0.2930
     12 O           0.4455   -1.4037    0.0000 O.2     1  LIG1       -0.2639
     13 H           2.7412    0.1617    0.0000 H       1  LIG1        0.0474
     14 H           1.9370   -1.2597   -0.9121 H       1  LIG1        0.0474
     15 H           1.9338   -1.2253    0.9370 H       1  LIG1        0.0474
     16 H           0.4455    2.1728    0.0000 H       1  LIG1        0.0854
     17 H          -0.9835    2.1728    0.0000 H       1  LIG1        0.0625
     18 H          -2.6518    1.2095    0.0000 H       1  LIG1        0.0633
     19 H          -2.6518   -0.7169    0.0000 H       1  LIG1        0.0830
@<TRIPOS>BOND
     1     1     2    1
     2     2     3   ar
     3     3     4   ar
     4     4     5   ar
     5     5     6   ar
     6     6     7   ar
     7     7     8   ar
     8     8     9   ar
     9     9    10   ar
    10     5    10   ar
    11    10    11   ar
    12     2    11   ar
    13    11    12    2
    14     1    13    1
    15     1    14    1
    16     1    15    1
    17     4    16    1
    18     6    17    1
    19     7    18    1
    20     8    19    1
