@<TRIPOS>MOLECULE
c1ncn2ccccc12
 15 16 0 0 0
SMALL
GASTEIGER
Energy = 0

@<TRIPOS>ATOM
      1 C           1.2964    0.4052    0.0000 C.ar    1  LIG1       -0.0451
      2 C           0.5819    0.8177    0.0000 C.ar    1  LIG1        0.0112
      3 N          -0.1326    0.4052    0.0000 N.ar    1  LIG1       -0.3058
      4 C          -0.9172    0.6601    0.0000 C.ar    1  LIG1        0.1004
      5 N          -1.4021   -0.0073    0.0000 N.ar    1  LIG1       -0.2431
      6 C          -0.9172   -0.6748    0.0000 C.ar    1  LIG1        0.0531
      7 C          -0.1326   -0.4198    0.0000 C.ar    1  LIG1        0.0655
      8 C           0.5819   -0.8323    0.0000 C.ar    1  LIG1       -0.0363
      9 C           1.2964   -0.4198    0.0000 C.ar    1  LIG1       -0.0584
     10 H           2.2503    0.9560    0.0000 H       1  LIG1        0.0632
     11 H           0.5819    1.9192    0.0000 H       1  LIG1        0.0813
     12 H          -1.2576    1.7077    0.0000 H       1  LIG1        0.1032
     13 H          -1.2576   -1.7224    0.0000 H       1  LIG1        0.0851
     14 H           0.5819   -1.9338    0.0000 H       1  LIG1        0.0639
     15 H           2.2503   -0.9706    0.0000 H       1  LIG1        0.0619
@<TRIPOS>BOND
     1     1     2   ar
     2     2     3   ar
     3     3     4   ar
     4     4     5   ar
     5     5     6   ar
     6     6     7   ar
     7     3     7   ar
     8     7     8   ar
     9     8     9   ar
    10     1     9   ar
    11     1    10    1
    12     2    11    1
    13     4    12    1
    14     6    13    1
    15     8    14    1
    16     9    15    1
