@<TRIPOS>MOLECULE
c1nc2cnccn2n1
 13 14 0 0 0
SMALL
GASTEIGER
Energy = 0

@<TRIPOS>ATOM
      1 C           1.2815    0.4125    0.0000 C.ar    1  LIG1        0.0459
      2 C           0.5671    0.8250    0.0000 C.ar    1  LIG1        0.0496
      3 N          -0.1474    0.4125    0.0000 N.ar    1  LIG1       -0.2175
      4 N          -0.9320    0.6674    0.0000 N.ar    1  LIG1       -0.1535
      5 C          -1.4170   -0.0000    0.0000 C.ar    1  LIG1        0.1391
      6 N          -0.9320   -0.6674    0.0000 N.ar    1  LIG1       -0.2133
      7 C          -0.1474   -0.4125    0.0000 C.ar    1  LIG1        0.1737
      8 C           0.5671   -0.8250    0.0000 C.ar    1  LIG1        0.0718
      9 N           1.2815   -0.4125    0.0000 N.ar    1  LIG1       -0.2581
     10 H           2.2354    0.9632    0.0000 H       1  LIG1        0.0845
     11 H           0.5671    1.9265    0.0000 H       1  LIG1        0.0846
     12 H          -2.5185    0.0000    0.0000 H       1  LIG1        0.1066
     13 H           0.5671   -1.9265    0.0000 H       1  LIG1        0.0867
@<TRIPOS>BOND
     1     1     2   ar
     2     2     3   ar
     3     3     4   ar
     4     4     5   ar
     5     5     6   ar
     6     6     7   ar
     7     3     7   ar
     8     7     8   ar
     9     8     9   ar
    10     1     9   ar
    11     1    10    1
    12     2    11    1
    13     5    12    1
    14     8    13    1
