@<TRIPOS>MOLECULE
Cn1cccc2cnnc12
 17 18 0 0 0
SMALL
GASTEIGER
Energy = 0

@<TRIPOS>ATOM
      1 C           0.5297   -1.4692    0.0000 C.3     1  LIG1        0.0133
      2 N           0.5297   -0.6442    0.0000 N.ar    1  LIG1       -0.3335
      3 C           1.2442   -0.2317    0.0000 C.ar    1  LIG1        0.0062
      4 C           1.2442    0.5933    0.0000 C.ar    1  LIG1       -0.0448
      5 C           0.5297    1.0058    0.0000 C.ar    1  LIG1       -0.0482
      6 C          -0.1848    0.5933    0.0000 C.ar    1  LIG1        0.0390
      7 C          -0.9694    0.8482    0.0000 C.ar    1  LIG1        0.0607
      8 N          -1.4543    0.1808    0.0000 N.ar    1  LIG1       -0.1550
      9 N          -0.9694   -0.4866    0.0000 N.ar    1  LIG1       -0.1308
     10 C          -0.1848   -0.2317    0.0000 C.ar    1  LIG1        0.1641
     11 H           1.6043   -1.8497    0.0000 H       1  LIG1        0.0456
     12 H          -0.0288   -1.8639   -0.9121 H       1  LIG1        0.0456
     13 H          -0.0005   -1.8439    0.9370 H       1  LIG1        0.0456
     14 H           2.1981   -0.7825    0.0000 H       1  LIG1        0.0809
     15 H           2.1981    1.1441    0.0000 H       1  LIG1        0.0632
     16 H           0.5297    2.1073    0.0000 H       1  LIG1        0.0626
     17 H          -1.3098    1.8958    0.0000 H       1  LIG1        0.0855
@<TRIPOS>BOND
     1     1     2    1
     2     2     3   ar
     3     3     4   ar
     4     4     5   ar
     5     5     6   ar
     6     6     7   ar
     7     7     8   ar
     8     8     9   ar
     9     9    10   ar
    10     2    10   ar
    11     6    10   ar
    12     1    11    1
    13     1    12    1
    14     1    13    1
    15     3    14    1
    16     4    15    1
    17     5    16    1
    18     7    17    1
