@<TRIPOS>MOLECULE
c1ncn2[nH]ncc12
 12 13 0 0 0
SMALL
GASTEIGER
Energy = 0

@<TRIPOS>ATOM
      1 N           0.7696   -0.6467    0.0000 N.ar    1  LIG1       -0.2113
      2 N           1.2545    0.0207    0.0000 N.ar    1  LIG1       -0.1639
      3 C           0.7696    0.6882    0.0000 C.ar    1  LIG1        0.0761
      4 C          -0.0150    0.4332    0.0000 C.ar    1  LIG1        0.1042
      5 C          -0.7997    0.6882    0.0000 C.ar    1  LIG1        0.0563
      6 N          -1.2846    0.0207    0.0000 N.ar    1  LIG1       -0.2415
      7 C          -0.7997   -0.6467    0.0000 C.ar    1  LIG1        0.1176
      8 N          -0.0150   -0.3918    0.0000 N.ar    1  LIG1       -0.2253
      9 H           1.1041   -1.6762    0.0000 H       1  LIG1        0.2109
     10 H           1.1100    1.7358    0.0000 H       1  LIG1        0.0870
     11 H          -1.1401    1.7358    0.0000 H       1  LIG1        0.0852
     12 H          -1.1401   -1.6943    0.0000 H       1  LIG1        0.1047
@<TRIPOS>BOND
     1     1     2   ar
     2     2     3   ar
     3     3     4   ar
     4     4     5   ar
     5     5     6   ar
     6     6     7   ar
     7     7     8   ar
     8     1     8   ar
     9     4     8   ar
    10     1     9    1
    11     3    10    1
    12     5    11    1
    13     7    12    1
