@<TRIPOS>MOLECULE
Cn1ccc(=O)[nH]1
 13 13 0 0 0
SMALL
GASTEIGER
Energy = 0

@<TRIPOS>ATOM
      1 C           1.3318    0.7569    0.0000 C.3     1  LIG1        0.0282
      2 N           0.6643    0.2720    0.0000 N.ar    1  LIG1       -0.2940
      3 N          -0.1203    0.5269    0.0000 N.ar    1  LIG1       -0.2639
      4 C          -0.6052   -0.1405    0.0000 C.ar    1  LIG1        0.2646
      5 O          -1.4302   -0.1405    0.0000 O.2     1  LIG1       -0.2664
      6 C          -0.1203   -0.8079    0.0000 C.ar    1  LIG1        0.0217
      7 C           0.6643   -0.5530    0.0000 C.ar    1  LIG1        0.0269
      8 H           1.0081    1.8500    0.0000 H       1  LIG1        0.0472
      9 H           1.9793    0.5370   -0.9121 H       1  LIG1        0.0472
     10 H           1.9466    0.5481    0.9370 H       1  LIG1        0.0472
     11 H          -0.4548    1.5564    0.0000 H       1  LIG1        0.1901
     12 H          -0.4607   -1.8555    0.0000 H       1  LIG1        0.0687
     13 H           1.5554   -1.2005    0.0000 H       1  LIG1        0.0827
@<TRIPOS>BOND
     1     1     2    1
     2     2     3   ar
     3     3     4   ar
     4     4     5    2
     5     4     6   ar
     6     6     7   ar
     7     2     7   ar
     8     1     8    1
     9     1     9    1
    10     1    10    1
    11     3    11    1
    12     6    12    1
    13     7    13    1
