@<TRIPOS>MOLECULE
O=c1[nH]ccc2ccccc12
 18 19 0 0 0
SMALL
GASTEIGER
Energy = 0

@<TRIPOS>ATOM
      1 O           0.6110   -1.4529    0.0000 O.2     1  LIG1       -0.2672
      2 C           0.6110   -0.6279    0.0000 C.ar    1  LIG1        0.2565
      3 N           1.3255   -0.2154    0.0000 N.ar    1  LIG1       -0.3286
      4 C           1.3255    0.6096    0.0000 C.ar    1  LIG1        0.0055
      5 C           0.6110    1.0221    0.0000 C.ar    1  LIG1       -0.0378
      6 C          -0.1034    0.6096    0.0000 C.ar    1  LIG1       -0.0114
      7 C          -0.8179    1.0221    0.0000 C.ar    1  LIG1       -0.0538
      8 C          -1.5324    0.6096    0.0000 C.ar    1  LIG1       -0.0612
      9 C          -1.5324   -0.2154    0.0000 C.ar    1  LIG1       -0.0610
     10 C          -0.8179   -0.6279    0.0000 C.ar    1  LIG1       -0.0488
     11 C          -0.1034   -0.2154    0.0000 C.ar    1  LIG1        0.0465
     12 H           2.2630   -0.7567    0.0000 H       1  LIG1        0.1683
     13 H           2.2794    1.1604    0.0000 H       1  LIG1        0.0808
     14 H           0.6110    2.1236    0.0000 H       1  LIG1        0.0638
     15 H          -0.8179    2.1236    0.0000 H       1  LIG1        0.0624
     16 H          -2.4863    1.1604    0.0000 H       1  LIG1        0.0618
     17 H          -2.4863   -0.7662    0.0000 H       1  LIG1        0.0618
     18 H          -0.8179   -1.7294    0.0000 H       1  LIG1        0.0625
@<TRIPOS>BOND
     1     1     2    2
     2     2     3   ar
     3     3     4   ar
     4     4     5   ar
     5     5     6   ar
     6     6     7   ar
     7     7     8   ar
     8     8     9   ar
     9     9    10   ar
    10    10    11   ar
    11     2    11   ar
    12     6    11   ar
    13     3    12    1
    14     4    13    1
    15     5    14    1
    16     7    15    1
    17     8    16    1
    18     9    17    1
    19    10    18    1
