@<TRIPOS>MOLECULE
Cn1ccc(=O)cn1
 14 14 0 0 0
SMALL
GASTEIGER
Energy = 0

@<TRIPOS>ATOM
      1 C           0.0137   -1.6895    0.0000 C.3     1  LIG1        0.0302
      2 N           0.0137   -0.8645    0.0000 N.ar    1  LIG1       -0.2743
      3 C           0.7282   -0.4520    0.0000 C.ar    1  LIG1        0.0273
      4 C           0.7282    0.3730    0.0000 C.ar    1  LIG1        0.0044
      5 C           0.0137    0.7855    0.0000 C.ar    1  LIG1        0.2000
      6 O           0.0137    1.6105    0.0000 O.2     1  LIG1       -0.2862
      7 C          -0.7008    0.3730    0.0000 C.ar    1  LIG1        0.0946
      8 N          -0.7008   -0.4520    0.0000 N.ar    1  LIG1       -0.1761
      9 H           1.0883   -2.0700    0.0000 H       1  LIG1        0.0473
     10 H          -0.5448   -2.0842   -0.9121 H       1  LIG1        0.0473
     11 H          -0.5165   -2.0642    0.9370 H       1  LIG1        0.0473
     12 H           1.6821   -1.0028    0.0000 H       1  LIG1        0.0827
     13 H           1.6821    0.9238    0.0000 H       1  LIG1        0.0671
     14 H          -1.6547    0.9238    0.0000 H       1  LIG1        0.0887
@<TRIPOS>BOND
     1     1     2    1
     2     2     3   ar
     3     3     4   ar
     4     4     5   ar
     5     5     6    2
     6     5     7   ar
     7     7     8   ar
     8     2     8   ar
     9     1     9    1
    10     1    10    1
    11     1    11    1
    12     3    12    1
    13     4    13    1
    14     7    14    1
