@<TRIPOS>MOLECULE
c1cn2[nH]cnc2n1
 12 13 0 0 0
SMALL
GASTEIGER
Energy = 0

@<TRIPOS>ATOM
      1 N           0.7696   -0.6723    0.0000 N.ar    1  LIG1       -0.2801
      2 C           1.2545   -0.0049    0.0000 C.ar    1  LIG1        0.1121
      3 N           0.7696    0.6625    0.0000 N.ar    1  LIG1       -0.1999
      4 C          -0.0150    0.4076    0.0000 C.ar    1  LIG1        0.2511
      5 N          -0.7997    0.6625    0.0000 N.ar    1  LIG1       -0.2176
      6 C          -1.2846   -0.0049    0.0000 C.ar    1  LIG1        0.0496
      7 C          -0.7997   -0.6723    0.0000 C.ar    1  LIG1        0.0490
      8 N          -0.0150   -0.4174    0.0000 N.ar    1  LIG1       -0.2259
      9 H           1.1041   -1.7018    0.0000 H       1  LIG1        0.1884
     10 H           2.3560   -0.0049    0.0000 H       1  LIG1        0.1042
     11 H          -2.3861   -0.0049    0.0000 H       1  LIG1        0.0846
     12 H          -1.1401   -1.7199    0.0000 H       1  LIG1        0.0846
@<TRIPOS>BOND
     1     1     2   ar
     2     2     3   ar
     3     3     4   ar
     4     4     5   ar
     5     5     6   ar
     6     6     7   ar
     7     7     8   ar
     8     1     8   ar
     9     4     8   ar
    10     1     9    1
    11     2    10    1
    12     6    11    1
    13     7    12    1
