@<TRIPOS>MOLECULE
Cn1c(=O)[nH]c2ccncc12
 18 19 0 0 0
SMALL
GASTEIGER
Energy = 0

@<TRIPOS>ATOM
      1 C           0.8363   -1.3235    0.0000 C.3     1  LIG1        0.0168
      2 N           0.5813   -0.5389    0.0000 N.ar    1  LIG1       -0.2939
      3 C           1.0663    0.1285    0.0000 C.ar    1  LIG1        0.3274
      4 O           1.8913    0.1285    0.0000 O.2     1  LIG1       -0.2465
      5 N           0.5813    0.7960    0.0000 N.ar    1  LIG1       -0.3059
      6 C          -0.2033    0.5410    0.0000 C.ar    1  LIG1        0.0699
      7 C          -0.9178    0.9535    0.0000 C.ar    1  LIG1       -0.0181
      8 C          -1.6322    0.5410    0.0000 C.ar    1  LIG1        0.0296
      9 N          -1.6322   -0.2840    0.0000 N.ar    1  LIG1       -0.2611
     10 C          -0.9178   -0.6965    0.0000 C.ar    1  LIG1        0.0532
     11 C          -0.2033   -0.2840    0.0000 C.ar    1  LIG1        0.0875
     12 H           1.9759   -1.3533    0.0000 H       1  LIG1        0.0457
     13 H           0.4272   -1.8715   -0.9121 H       1  LIG1        0.0457
     14 H           0.4478   -1.8438    0.9370 H       1  LIG1        0.0457
     15 H           0.9158    1.8255    0.0000 H       1  LIG1        0.1705
     16 H          -0.9178    2.0550    0.0000 H       1  LIG1        0.0654
     17 H          -2.5861    1.0917    0.0000 H       1  LIG1        0.0830
     18 H          -0.9178   -1.7980    0.0000 H       1  LIG1        0.0851
@<TRIPOS>BOND
     1     1     2    1
     2     2     3   ar
     3     3     4    2
     4     3     5   ar
     5     5     6   ar
     6     6     7   ar
     7     7     8   ar
     8     8     9   ar
     9     9    10   ar
    10    10    11   ar
    11     2    11   ar
    12     6    11   ar
    13     1    12    1
    14     1    13    1
    15     1    14    1
    16     5    15    1
    17     7    16    1
    18     8    17    1
    19    10    18    1
