@<TRIPOS>MOLECULE
Cn1ccc2cncn12
 16 17 0 0 0
SMALL
GASTEIGER
Energy = 0

@<TRIPOS>ATOM
      1 C           0.9386   -1.2803    0.0000 C.3     1  LIG1        0.0287
      2 N           0.6837   -0.4957    0.0000 N.ar    1  LIG1       -0.2887
      3 C           1.1686    0.1718    0.0000 C.ar    1  LIG1        0.0243
      4 C           0.6837    0.8392    0.0000 C.ar    1  LIG1       -0.0171
      5 C          -0.1010    0.5843    0.0000 C.ar    1  LIG1        0.0846
      6 C          -0.8856    0.8392    0.0000 C.ar    1  LIG1        0.0547
      7 N          -1.3705    0.1718    0.0000 N.ar    1  LIG1       -0.2416
      8 C          -0.8856   -0.4957    0.0000 C.ar    1  LIG1        0.1162
      9 N          -0.1010   -0.2407    0.0000 N.ar    1  LIG1       -0.2406
     10 H           2.0782   -1.3102    0.0000 H       1  LIG1        0.0472
     11 H           0.5294   -1.8282   -0.9121 H       1  LIG1        0.0472
     12 H           0.5501   -1.8005    0.9370 H       1  LIG1        0.0472
     13 H           2.2701    0.1718    0.0000 H       1  LIG1        0.0826
     14 H           1.0241    1.8868    0.0000 H       1  LIG1        0.0654
     15 H          -1.2260    1.8868    0.0000 H       1  LIG1        0.0852
     16 H          -1.2260   -1.5433    0.0000 H       1  LIG1        0.1047
@<TRIPOS>BOND
     1     1     2    1
     2     2     3   ar
     3     3     4   ar
     4     4     5   ar
     5     5     6   ar
     6     6     7   ar
     7     7     8   ar
     8     8     9   ar
     9     2     9   ar
    10     5     9   ar
    11     1    10    1
    12     1    11    1
    13     1    12    1
    14     3    13    1
    15     4    14    1
    16     6    15    1
    17     8    16    1
