@<TRIPOS>MOLECULE
O=c1ccn2ccccc2n1
 17 18 0 0 0
SMALL
GASTEIGER
Energy = 0

@<TRIPOS>ATOM
      1 O           1.8885   -0.7249    0.0000 O.2     1  LIG1       -0.2658
      2 C           1.1740   -0.3124    0.0000 C.ar    1  LIG1        0.2734
      3 C           1.1740    0.5126    0.0000 C.ar    1  LIG1        0.0212
      4 C           0.4595    0.9251    0.0000 C.ar    1  LIG1        0.0163
      5 N          -0.2550    0.5126    0.0000 N.ar    1  LIG1       -0.3078
      6 C          -0.9694    0.9251    0.0000 C.ar    1  LIG1        0.0111
      7 C          -1.6839    0.5126    0.0000 C.ar    1  LIG1       -0.0451
      8 C          -1.6839   -0.3124    0.0000 C.ar    1  LIG1       -0.0569
      9 C          -0.9694   -0.7249    0.0000 C.ar    1  LIG1       -0.0187
     10 C          -0.2550   -0.3124    0.0000 C.ar    1  LIG1        0.1414
     11 N           0.4595   -0.7249    0.0000 N.ar    1  LIG1       -0.1913
     12 H           2.1279    1.0634    0.0000 H       1  LIG1        0.0687
     13 H           0.4595    2.0266    0.0000 H       1  LIG1        0.0815
     14 H          -0.9694    2.0266    0.0000 H       1  LIG1        0.0813
     15 H          -2.6378    1.0634    0.0000 H       1  LIG1        0.0632
     16 H          -2.6378   -0.8632    0.0000 H       1  LIG1        0.0619
     17 H          -0.9694   -1.8264    0.0000 H       1  LIG1        0.0654
@<TRIPOS>BOND
     1     1     2    2
     2     2     3   ar
     3     3     4   ar
     4     4     5   ar
     5     5     6   ar
     6     6     7   ar
     7     7     8   ar
     8     8     9   ar
     9     9    10   ar
    10     5    10   ar
    11    10    11   ar
    12     2    11   ar
    13     3    12    1
    14     4    13    1
    15     6    14    1
    16     7    15    1
    17     8    16    1
    18     9    17    1
