@<TRIPOS>MOLECULE
Cn1ccn2c(=O)nccc12
 18 19 0 0 0
SMALL
GASTEIGER
Energy = 0

@<TRIPOS>ATOM
      1 C           1.1636   -1.5173    0.0000 C.3     1  LIG1        0.0132
      2 N           0.9086   -0.7327    0.0000 N.ar    1  LIG1       -0.3349
      3 C           1.3936   -0.0653    0.0000 C.ar    1  LIG1        0.0227
      4 C           0.9086    0.6022    0.0000 C.ar    1  LIG1        0.0322
      5 N           0.1240    0.3472    0.0000 N.ar    1  LIG1       -0.2519
      6 C          -0.5904    0.7597    0.0000 C.ar    1  LIG1        0.3540
      7 O          -0.5904    1.5847    0.0000 O.2     1  LIG1       -0.2441
      8 N          -1.3049    0.3472    0.0000 N.ar    1  LIG1       -0.2009
      9 C          -1.3049   -0.4778    0.0000 C.ar    1  LIG1        0.0364
     10 C          -0.5904   -0.8903    0.0000 C.ar    1  LIG1       -0.0021
     11 C           0.1240   -0.4778    0.0000 C.ar    1  LIG1        0.1231
     12 H           2.3032   -1.5471    0.0000 H       1  LIG1        0.0456
     13 H           0.7545   -2.0653   -0.9121 H       1  LIG1        0.0456
     14 H           0.7751   -2.0376    0.9370 H       1  LIG1        0.0456
     15 H           2.4951   -0.0653    0.0000 H       1  LIG1        0.0824
     16 H           1.2489    1.6498    0.0000 H       1  LIG1        0.0829
     17 H          -2.2588   -1.0286    0.0000 H       1  LIG1        0.0832
     18 H          -0.5904   -1.9918    0.0000 H       1  LIG1        0.0669
@<TRIPOS>BOND
     1     1     2    1
     2     2     3   ar
     3     3     4   ar
     4     4     5   ar
     5     5     6   ar
     6     6     7    2
     7     6     8   ar
     8     8     9   ar
     9     9    10   ar
    10    10    11   ar
    11     2    11   ar
    12     5    11   ar
    13     1    12    1
    14     1    13    1
    15     1    14    1
    16     3    15    1
    17     4    16    1
    18     9    17    1
    19    10    18    1
