@<TRIPOS>MOLECULE
Cn1nncnc1=O
 12 12 0 0 0
SMALL
GASTEIGER
Energy = 0

@<TRIPOS>ATOM
      1 C           0.1984   -1.3368    0.0000 C.3     1  LIG1        0.0370
      2 N           0.1984   -0.5118    0.0000 N.ar    1  LIG1       -0.1977
      3 N           0.9128   -0.0993    0.0000 N.ar    1  LIG1       -0.0603
      4 N           0.9128    0.7257    0.0000 N.ar    1  LIG1       -0.1193
      5 C           0.1984    1.1382    0.0000 C.ar    1  LIG1        0.1453
      6 N          -0.5161    0.7257    0.0000 N.ar    1  LIG1       -0.1784
      7 C          -0.5161   -0.0993    0.0000 C.ar    1  LIG1        0.3670
      8 O          -1.2306   -0.5118    0.0000 O.2     1  LIG1       -0.2429
      9 H           1.2730   -1.7173    0.0000 H       1  LIG1        0.0475
     10 H          -0.3601   -1.7315   -0.9121 H       1  LIG1        0.0475
     11 H          -0.3318   -1.7115    0.9370 H       1  LIG1        0.0475
     12 H           0.1984    2.2397    0.0000 H       1  LIG1        0.1068
@<TRIPOS>BOND
     1     1     2    1
     2     2     3   ar
     3     3     4   ar
     4     4     5   ar
     5     5     6   ar
     6     6     7   ar
     7     2     7   ar
     8     7     8    2
     9     1     9    1
    10     1    10    1
    11     1    11    1
    12     5    12    1
