@<TRIPOS>MOLECULE
Cn1nc2ccc(=O)[nH]n2c1=O
 18 19 0 0 0
SMALL
GASTEIGER
Energy = 0

@<TRIPOS>ATOM
      1 C           2.1397    0.2347    0.0000 C.3     1  LIG1        0.0355
      2 N           1.3147    0.2347    0.0000 N.ar    1  LIG1       -0.2143
      3 N           0.8297    0.9021    0.0000 N.ar    1  LIG1       -0.1476
      4 C           0.0451    0.6472    0.0000 C.ar    1  LIG1        0.1774
      5 C          -0.6694    1.0597    0.0000 C.ar    1  LIG1       -0.0105
      6 C          -1.3838    0.6472    0.0000 C.ar    1  LIG1        0.0077
      7 C          -1.3838   -0.1778    0.0000 C.ar    1  LIG1        0.2637
      8 O          -2.0983   -0.5903    0.0000 O.2     1  LIG1       -0.2665
      9 N          -0.6694   -0.5903    0.0000 N.ar    1  LIG1       -0.2536
     10 N           0.0451   -0.1778    0.0000 N.ar    1  LIG1       -0.1807
     11 C           0.8297   -0.4328    0.0000 C.ar    1  LIG1        0.3657
     12 O           1.0847   -1.2174    0.0000 O.2     1  LIG1       -0.2429
     13 H           2.5202    1.3093    0.0000 H       1  LIG1        0.0474
     14 H           2.5344   -0.3238   -0.9121 H       1  LIG1        0.0474
     15 H           2.5144   -0.2955    0.9370 H       1  LIG1        0.0474
     16 H          -0.6694    2.1612    0.0000 H       1  LIG1        0.0657
     17 H          -2.3377    1.1979    0.0000 H       1  LIG1        0.0673
     18 H          -0.6694   -1.6728    0.0000 H       1  LIG1        0.1907
@<TRIPOS>BOND
     1     1     2    1
     2     2     3   ar
     3     3     4   ar
     4     4     5   ar
     5     5     6   ar
     6     6     7   ar
     7     7     8    2
     8     7     9   ar
     9     9    10   ar
    10     4    10   ar
    11    10    11   ar
    12     2    11   ar
    13    11    12    2
    14     1    13    1
    15     1    14    1
    16     1    15    1
    17     5    16    1
    18     6    17    1
    19     9    18    1
