@<TRIPOS>MOLECULE
O=c1[nH]cnc2cnnnc12
 14 15 0 0 0
SMALL
GASTEIGER
Energy = 0

@<TRIPOS>ATOM
      1 O           0.6557   -1.4637    0.0000 O.2     1  LIG1       -0.2654
      2 C           0.6557   -0.6387    0.0000 C.ar    1  LIG1        0.2793
      3 N           1.3702   -0.2262    0.0000 N.ar    1  LIG1       -0.3116
      4 C           1.3702    0.5988    0.0000 C.ar    1  LIG1        0.0968
      5 N           0.6557    1.0113    0.0000 N.ar    1  LIG1       -0.2340
      6 C          -0.0587    0.5988    0.0000 C.ar    1  LIG1        0.1177
      7 C          -0.7732    1.0113    0.0000 C.ar    1  LIG1        0.0793
      8 N          -1.4877    0.5988    0.0000 N.ar    1  LIG1       -0.1356
      9 N          -1.4877   -0.2262    0.0000 N.ar    1  LIG1       -0.0425
     10 N          -0.7732   -0.6387    0.0000 N.ar    1  LIG1       -0.1223
     11 C          -0.0587   -0.2262    0.0000 C.ar    1  LIG1        0.1786
     12 H           2.3077   -0.7675    0.0000 H       1  LIG1        0.1698
     13 H           2.3241    1.1496    0.0000 H       1  LIG1        0.1028
     14 H          -0.7732    2.1128    0.0000 H       1  LIG1        0.0871
@<TRIPOS>BOND
     1     1     2    2
     2     2     3   ar
     3     3     4   ar
     4     4     5   ar
     5     5     6   ar
     6     6     7   ar
     7     7     8   ar
     8     8     9   ar
     9     9    10   ar
    10    10    11   ar
    11     2    11   ar
    12     6    11   ar
    13     3    12    1
    14     4    13    1
    15     7    14    1
