@<TRIPOS>MOLECULE
Cn1cnc2n[nH]c(=O)cc12
 17 18 0 0 0
SMALL
GASTEIGER
Energy = 0

@<TRIPOS>ATOM
      1 C           1.3196   -1.2566    0.0000 C.3     1  LIG1        0.0133
      2 N           1.0646   -0.4719    0.0000 N.ar    1  LIG1       -0.3317
      3 C           1.5495    0.1955    0.0000 C.ar    1  LIG1        0.0986
      4 N           1.0646    0.8629    0.0000 N.ar    1  LIG1       -0.2150
      5 C           0.2800    0.6080    0.0000 C.ar    1  LIG1        0.1977
      6 N          -0.4345    1.0205    0.0000 N.ar    1  LIG1       -0.1492
      7 N          -1.1489    0.6080    0.0000 N.ar    1  LIG1       -0.2411
      8 C          -1.1489   -0.2170    0.0000 C.ar    1  LIG1        0.2668
      9 O          -1.8634   -0.6295    0.0000 O.2     1  LIG1       -0.2664
     10 C          -0.4345   -0.6295    0.0000 C.ar    1  LIG1        0.0314
     11 C           0.2800   -0.2170    0.0000 C.ar    1  LIG1        0.0943
     12 H           2.4592   -1.2864    0.0000 H       1  LIG1        0.0456
     13 H           0.9105   -1.8045   -0.9121 H       1  LIG1        0.0456
     14 H           0.9311   -1.7769    0.9370 H       1  LIG1        0.0456
     15 H           2.6510    0.1955    0.0000 H       1  LIG1        0.1029
     16 H          -2.0864    1.1492    0.0000 H       1  LIG1        0.1922
     17 H          -0.4345   -1.7310    0.0000 H       1  LIG1        0.0694
@<TRIPOS>BOND
     1     1     2    1
     2     2     3   ar
     3     3     4   ar
     4     4     5   ar
     5     5     6   ar
     6     6     7   ar
     7     7     8   ar
     8     8     9    2
     9     8    10   ar
    10    10    11   ar
    11     2    11   ar
    12     5    11   ar
    13     1    12    1
    14     1    13    1
    15     1    14    1
    16     3    15    1
    17     7    16    1
    18    10    17    1
