@<TRIPOS>MOLECULE
O=c1cnc2[nH]ccc2[nH]1
 15 16 0 0 0
SMALL
GASTEIGER
Energy = 0

@<TRIPOS>ATOM
      1 O          -1.7362    0.7338    0.0000 O.2     1  LIG1       -0.2662
      2 C          -1.0217    0.3213    0.0000 C.ar    1  LIG1        0.2675
      3 N          -0.3073    0.7338    0.0000 N.ar    1  LIG1       -0.3184
      4 C           0.4072    0.3213    0.0000 C.ar    1  LIG1        0.0861
      5 C           0.4072   -0.5037    0.0000 C.ar    1  LIG1        0.1547
      6 N           1.1918   -0.7587    0.0000 N.ar    1  LIG1       -0.3446
      7 C           1.6768   -0.0912    0.0000 C.ar    1  LIG1        0.0056
      8 C           1.1918    0.5762    0.0000 C.ar    1  LIG1       -0.0187
      9 N          -0.3073   -0.9162    0.0000 N.ar    1  LIG1       -0.2307
     10 C          -1.0217   -0.5037    0.0000 C.ar    1  LIG1        0.0942
     11 H          -0.3073    1.8163    0.0000 H       1  LIG1        0.1690
     12 H           1.5263   -1.7882    0.0000 H       1  LIG1        0.1668
     13 H           2.7783   -0.0912    0.0000 H       1  LIG1        0.0808
     14 H           1.5321    1.6238    0.0000 H       1  LIG1        0.0654
     15 H          -1.9756   -1.0544    0.0000 H       1  LIG1        0.0886
@<TRIPOS>BOND
     1     1     2    2
     2     2     3   ar
     3     3     4   ar
     4     4     5   ar
     5     5     6   ar
     6     6     7   ar
     7     7     8   ar
     8     4     8   ar
     9     5     9   ar
    10     9    10   ar
    11     2    10   ar
    12     3    11    1
    13     6    12    1
    14     7    13    1
    15     8    14    1
    16    10    15    1
