@<TRIPOS>MOLECULE
Cn1cc2ccncc2cc1=O
 20 21 0 0 0
SMALL
GASTEIGER
Energy = 0

@<TRIPOS>ATOM
      1 C           1.7487    0.8466    0.0000 C.3     1  LIG1        0.0147
      2 N           1.0342    0.4341    0.0000 N.ar    1  LIG1       -0.3177
      3 C           0.3198    0.8466    0.0000 C.ar    1  LIG1        0.0154
      4 C          -0.3947    0.4341    0.0000 C.ar    1  LIG1        0.0014
      5 C          -1.1092    0.8466    0.0000 C.ar    1  LIG1       -0.0345
      6 C          -1.8236    0.4341    0.0000 C.ar    1  LIG1        0.0282
      7 N          -1.8236   -0.3909    0.0000 N.ar    1  LIG1       -0.2626
      8 C          -1.1092   -0.8034    0.0000 C.ar    1  LIG1        0.0355
      9 C          -0.3947   -0.3909    0.0000 C.ar    1  LIG1        0.0067
     10 C           0.3198   -0.8034    0.0000 C.ar    1  LIG1        0.0121
     11 C           1.0342   -0.3909    0.0000 C.ar    1  LIG1        0.2517
     12 O           1.7487   -0.8034    0.0000 O.2     1  LIG1       -0.2677
     13 H           1.5410    1.9675    0.0000 H       1  LIG1        0.0457
     14 H           2.3697    0.5603   -0.9121 H       1  LIG1        0.0457
     15 H           2.3384    0.5748    0.9370 H       1  LIG1        0.0457
     16 H           0.3198    1.9481    0.0000 H       1  LIG1        0.0816
     17 H          -1.1092    1.9481    0.0000 H       1  LIG1        0.0639
     18 H          -2.7775    0.9848    0.0000 H       1  LIG1        0.0830
     19 H          -1.1092   -1.9049    0.0000 H       1  LIG1        0.0836
     20 H           0.3198   -1.9049    0.0000 H       1  LIG1        0.0678
@<TRIPOS>BOND
     1     1     2    1
     2     2     3   ar
     3     3     4   ar
     4     4     5   ar
     5     5     6   ar
     6     6     7   ar
     7     7     8   ar
     8     8     9   ar
     9     4     9   ar
    10     9    10   ar
    11    10    11   ar
    12     2    11   ar
    13    11    12    2
    14     1    13    1
    15     1    14    1
    16     1    15    1
    17     3    16    1
    18     5    17    1
    19     6    18    1
    20     8    19    1
    21    10    20    1
