@<TRIPOS>MOLECULE
O=c1[nH]cc2ccccn12
 16 17 0 0 0
SMALL
GASTEIGER
Energy = 0

@<TRIPOS>ATOM
      1 O           1.0257   -1.2643    0.0000 O.2     1  LIG1       -0.2462
      2 C           0.7708   -0.4796    0.0000 C.ar    1  LIG1        0.3312
      3 N           1.2557    0.1878    0.0000 N.ar    1  LIG1       -0.3121
      4 C           0.7708    0.8552    0.0000 C.ar    1  LIG1        0.0303
      5 C          -0.0139    0.6003    0.0000 C.ar    1  LIG1        0.0668
      6 C          -0.7283    1.0128    0.0000 C.ar    1  LIG1       -0.0362
      7 C          -1.4428    0.6003    0.0000 C.ar    1  LIG1       -0.0584
      8 C          -1.4428   -0.2247    0.0000 C.ar    1  LIG1       -0.0450
      9 C          -0.7283   -0.6372    0.0000 C.ar    1  LIG1        0.0147
     10 N          -0.0139   -0.2247    0.0000 N.ar    1  LIG1       -0.2683
     11 H           2.3382    0.1878    0.0000 H       1  LIG1        0.1699
     12 H           1.1112    1.9028    0.0000 H       1  LIG1        0.0829
     13 H          -0.7283    2.1143    0.0000 H       1  LIG1        0.0639
     14 H          -2.3967    1.1511    0.0000 H       1  LIG1        0.0619
     15 H          -2.3967   -0.7755    0.0000 H       1  LIG1        0.0632
     16 H          -0.7283   -1.7387    0.0000 H       1  LIG1        0.0814
@<TRIPOS>BOND
     1     1     2    2
     2     2     3   ar
     3     3     4   ar
     4     4     5   ar
     5     5     6   ar
     6     6     7   ar
     7     7     8   ar
     8     8     9   ar
     9     9    10   ar
    10     2    10   ar
    11     5    10   ar
    12     3    11    1
    13     4    12    1
    14     6    13    1
    15     7    14    1
    16     8    15    1
    17     9    16    1
