@<TRIPOS>MOLECULE
Cn1cn[nH]c1=O
 12 12 0 0 0
SMALL
GASTEIGER
Energy = 0

@<TRIPOS>ATOM
      1 C          -0.1547   -1.2754    0.0000 C.3     1  LIG1        0.0176
      2 N           0.1003   -0.4908    0.0000 N.ar    1  LIG1       -0.2851
      3 C           0.8849   -0.2358    0.0000 C.ar    1  LIG1        0.1200
      4 N           0.8849    0.5892    0.0000 N.ar    1  LIG1       -0.1600
      5 N           0.1003    0.8441    0.0000 N.ar    1  LIG1       -0.2269
      6 C          -0.3847    0.1767    0.0000 C.ar    1  LIG1        0.3437
      7 O          -1.2097    0.1767    0.0000 O.2     1  LIG1       -0.2450
      8 H           0.7497   -1.9695    0.0000 H       1  LIG1        0.0457
      9 H          -0.8078   -1.4781   -0.9121 H       1  LIG1        0.0457
     10 H          -0.7748   -1.4679    0.9370 H       1  LIG1        0.0457
     11 H           1.7761   -0.8832    0.0000 H       1  LIG1        0.1048
     12 H          -0.2342    1.8736    0.0000 H       1  LIG1        0.1937
@<TRIPOS>BOND
     1     1     2    1
     2     2     3   ar
     3     3     4   ar
     4     4     5   ar
     5     5     6   ar
     6     2     6   ar
     7     6     7    2
     8     1     8    1
     9     1     9    1
    10     1    10    1
    11     3    11    1
    12     5    12    1
