@<TRIPOS>MOLECULE
Cn1ccc2cc[nH]c(=O)c12
 19 20 0 0 0
SMALL
GASTEIGER
Energy = 0

@<TRIPOS>ATOM
      1 C           1.1654   -1.1238    0.0000 C.3     1  LIG1        0.0120
      2 N           0.9104   -0.3391    0.0000 N.ar    1  LIG1       -0.3455
      3 C           1.3953    0.3283    0.0000 C.ar    1  LIG1        0.0055
      4 C           0.9104    0.9957    0.0000 C.ar    1  LIG1       -0.0362
      5 C           0.1258    0.7408    0.0000 C.ar    1  LIG1        0.0065
      6 C           0.1258   -0.0842    0.0000 C.ar    1  LIG1        0.1140
      7 C          -0.5887   -0.4967    0.0000 C.ar    1  LIG1        0.2729
      8 O          -0.5887   -1.3217    0.0000 O.2     1  LIG1       -0.2656
      9 N          -1.3031   -0.0842    0.0000 N.ar    1  LIG1       -0.3274
     10 C          -1.3031    0.7408    0.0000 C.ar    1  LIG1        0.0056
     11 C          -0.5887    1.1533    0.0000 C.ar    1  LIG1       -0.0363
     12 H           2.3050   -1.1536    0.0000 H       1  LIG1        0.0456
     13 H           0.7563   -1.6717   -0.9121 H       1  LIG1        0.0456
     14 H           0.7769   -1.6441    0.9370 H       1  LIG1        0.0456
     15 H           2.4968    0.3283    0.0000 H       1  LIG1        0.0809
     16 H           1.2508    2.0433    0.0000 H       1  LIG1        0.0639
     17 H          -2.2406   -0.6254    0.0000 H       1  LIG1        0.1684
     18 H          -2.2570    1.2915    0.0000 H       1  LIG1        0.0808
     19 H          -0.5887    2.2548    0.0000 H       1  LIG1        0.0639
@<TRIPOS>BOND
     1     1     2    1
     2     2     3   ar
     3     3     4   ar
     4     4     5   ar
     5     5     6   ar
     6     2     6   ar
     7     6     7   ar
     8     7     8    2
     9     7     9   ar
    10     9    10   ar
    11    10    11   ar
    12     5    11   ar
    13     1    12    1
    14     1    13    1
    15     1    14    1
    16     3    15    1
    17     4    16    1
    18     9    17    1
    19    10    18    1
    20    11    19    1
