@<TRIPOS>MOLECULE
O=c1ccc2ccc[nH]c2n1
 17 18 0 0 0
SMALL
GASTEIGER
Energy = 0

@<TRIPOS>ATOM
      1 O           1.8986   -0.7073    0.0000 O.2     1  LIG1       -0.2658
      2 C           1.1842   -0.2948    0.0000 C.ar    1  LIG1        0.2721
      3 C           1.1842    0.5302    0.0000 C.ar    1  LIG1        0.0054
      4 C           0.4697    0.9427    0.0000 C.ar    1  LIG1       -0.0459
      5 C          -0.2448    0.5302    0.0000 C.ar    1  LIG1        0.0176
      6 C          -0.9593    0.9427    0.0000 C.ar    1  LIG1       -0.0497
      7 C          -1.6737    0.5302    0.0000 C.ar    1  LIG1       -0.0451
      8 C          -1.6737   -0.2948    0.0000 C.ar    1  LIG1        0.0035
      9 N          -0.9593   -0.7073    0.0000 N.ar    1  LIG1       -0.3458
     10 C          -0.2448   -0.2948    0.0000 C.ar    1  LIG1        0.1420
     11 N           0.4697   -0.7073    0.0000 N.ar    1  LIG1       -0.1913
     12 H           2.1381    1.0810    0.0000 H       1  LIG1        0.0672
     13 H           0.4697    2.0442    0.0000 H       1  LIG1        0.0626
     14 H          -0.9593    2.0442    0.0000 H       1  LIG1        0.0625
     15 H          -2.6276    1.0809    0.0000 H       1  LIG1        0.0632
     16 H          -2.6276   -0.8455    0.0000 H       1  LIG1        0.0807
     17 H          -0.9593   -1.7898    0.0000 H       1  LIG1        0.1668
@<TRIPOS>BOND
     1     1     2    2
     2     2     3   ar
     3     3     4   ar
     4     4     5   ar
     5     5     6   ar
     6     6     7   ar
     7     7     8   ar
     8     8     9   ar
     9     9    10   ar
    10     5    10   ar
    11    10    11   ar
    12     2    11   ar
    13     3    12    1
    14     4    13    1
    15     6    14    1
    16     7    15    1
    17     8    16    1
    18     9    17    1
