@<TRIPOS>MOLECULE
O=c1[nH]ncc2occc12
 14 15 0 0 0
SMALL
GASTEIGER
Energy = 0

@<TRIPOS>ATOM
      1 O          -0.4767   -1.4703    0.0000 O.2     1  LIG1       -0.2657
      2 C          -0.4767   -0.6453    0.0000 C.ar    1  LIG1        0.2755
      3 N          -1.1912   -0.2328    0.0000 N.ar    1  LIG1       -0.2425
      4 N          -1.1912    0.5922    0.0000 N.ar    1  LIG1       -0.1757
      5 C          -0.4767    1.0047    0.0000 C.ar    1  LIG1        0.0908
      6 C           0.2377    0.5922    0.0000 C.ar    1  LIG1        0.1597
      7 C           0.2377   -0.2328    0.0000 C.ar    1  LIG1        0.0873
      8 C           1.0223   -0.4877    0.0000 C.ar    1  LIG1       -0.0108
      9 C           1.5073    0.1797    0.0000 C.ar    1  LIG1        0.0934
     10 O           1.0223    0.8472    0.0000 O.2     1  LIG1       -0.4612
     11 H          -2.1287   -0.7741    0.0000 H       1  LIG1        0.1921
     12 H          -0.4767    2.1062    0.0000 H       1  LIG1        0.0885
     13 H           1.3626   -1.5353    0.0000 H       1  LIG1        0.0657
     14 H           2.6088    0.1797    0.0000 H       1  LIG1        0.1030
@<TRIPOS>BOND
     1     1     2    2
     2     2     3   ar
     3     3     4   ar
     4     4     5   ar
     5     5     6   ar
     6     6     7   ar
     7     2     7   ar
     8     7     8   ar
     9     8     9   ar
    10     9    10   ar
    11     6    10   ar
    12     3    11    1
    13     5    12    1
    14     8    13    1
    15     9    14    1
