@<TRIPOS>MOLECULE
Cn1cnc2cnnnc12
 15 16 0 0 0
SMALL
GASTEIGER
Energy = 0

@<TRIPOS>ATOM
      1 C           1.1080   -1.3053    0.0000 C.3     1  LIG1        0.0147
      2 N           0.8531   -0.5207    0.0000 N.ar    1  LIG1       -0.3167
      3 C           1.3380    0.1467    0.0000 C.ar    1  LIG1        0.0980
      4 N           0.8531    0.8142    0.0000 N.ar    1  LIG1       -0.2325
      5 C           0.0684    0.5592    0.0000 C.ar    1  LIG1        0.1294
      6 C          -0.6460    0.9717    0.0000 C.ar    1  LIG1        0.0806
      7 N          -1.3605    0.5592    0.0000 N.ar    1  LIG1       -0.1355
      8 N          -1.3605   -0.2658    0.0000 N.ar    1  LIG1       -0.0412
      9 N          -0.6460   -0.6783    0.0000 N.ar    1  LIG1       -0.1093
     10 C           0.0684   -0.2658    0.0000 C.ar    1  LIG1        0.1854
     11 H           2.2476   -1.3352    0.0000 H       1  LIG1        0.0457
     12 H           0.6988   -1.8532   -0.9121 H       1  LIG1        0.0457
     13 H           0.7195   -1.8255    0.9370 H       1  LIG1        0.0457
     14 H           2.4395    0.1467    0.0000 H       1  LIG1        0.1029
     15 H          -0.6460    2.0732    0.0000 H       1  LIG1        0.0871
@<TRIPOS>BOND
     1     1     2    1
     2     2     3   ar
     3     3     4   ar
     4     4     5   ar
     5     5     6   ar
     6     6     7   ar
     7     7     8   ar
     8     8     9   ar
     9     9    10   ar
    10     2    10   ar
    11     5    10   ar
    12     1    11    1
    13     1    12    1
    14     1    13    1
    15     3    14    1
    16     6    15    1
