@<TRIPOS>MOLECULE
Cn1ccc2[nH]ncc2c1=O
 18 19 0 0 0
SMALL
GASTEIGER
Energy = 0

@<TRIPOS>ATOM
      1 C          -1.7682   -0.5731    0.0000 C.3     1  LIG1        0.0147
      2 N          -1.0537   -0.1606    0.0000 N.ar    1  LIG1       -0.3176
      3 C          -1.0537    0.6644    0.0000 C.ar    1  LIG1        0.0096
      4 C          -0.3392    1.0769    0.0000 C.ar    1  LIG1       -0.0199
      5 C           0.3752    0.6644    0.0000 C.ar    1  LIG1        0.0723
      6 C           0.3752   -0.1606    0.0000 C.ar    1  LIG1        0.0839
      7 C           1.1599   -0.4155    0.0000 C.ar    1  LIG1        0.0621
      8 N           1.6448    0.2519    0.0000 N.ar    1  LIG1       -0.1810
      9 N           1.1599    0.9194    0.0000 N.ar    1  LIG1       -0.2767
     10 C          -0.3392   -0.5731    0.0000 C.ar    1  LIG1        0.2618
     11 O          -0.3392   -1.3981    0.0000 O.2     1  LIG1       -0.2669
     12 H          -2.6350    0.1673    0.0000 H       1  LIG1        0.0457
     13 H          -1.8308   -1.2541    0.9121 H       1  LIG1        0.0457
     14 H          -1.8276   -1.2197   -0.9370 H       1  LIG1        0.0457
     15 H          -2.0076    1.2152    0.0000 H       1  LIG1        0.0810
     16 H          -0.3392    2.1784    0.0000 H       1  LIG1        0.0653
     17 H           1.5003   -1.4631    0.0000 H       1  LIG1        0.0856
     18 H           1.4944    1.9489    0.0000 H       1  LIG1        0.1889
@<TRIPOS>BOND
     1     1     2    1
     2     2     3   ar
     3     3     4   ar
     4     4     5   ar
     5     5     6   ar
     6     6     7   ar
     7     7     8   ar
     8     8     9   ar
     9     5     9   ar
    10     6    10   ar
    11     2    10   ar
    12    10    11    2
    13     1    12    1
    14     1    13    1
    15     1    14    1
    16     3    15    1
    17     4    16    1
    18     7    17    1
    19     9    18    1
