@<TRIPOS>MOLECULE
O=c1nc2nc[nH]c2c[nH]1
 14 15 0 0 0
SMALL
GASTEIGER
Energy = 0

@<TRIPOS>ATOM
      1 O           1.7434   -0.7188    0.0000 O.2     1  LIG1       -0.2447
      2 C           1.0289   -0.3063    0.0000 C.ar    1  LIG1        0.3478
      3 N           1.0289    0.5187    0.0000 N.ar    1  LIG1       -0.3109
      4 C           0.3145    0.9312    0.0000 C.ar    1  LIG1        0.0334
      5 C          -0.4000    0.5187    0.0000 C.ar    1  LIG1        0.1014
      6 N          -1.1846    0.7736    0.0000 N.ar    1  LIG1       -0.3420
      7 C          -1.6695    0.1062    0.0000 C.ar    1  LIG1        0.0962
      8 N          -1.1846   -0.5613    0.0000 N.ar    1  LIG1       -0.2164
      9 C          -0.4000   -0.3063    0.0000 C.ar    1  LIG1        0.1842
     10 N           0.3145   -0.7188    0.0000 N.ar    1  LIG1       -0.1718
     11 H           1.9664    1.0599    0.0000 H       1  LIG1        0.1699
     12 H           0.3145    2.0327    0.0000 H       1  LIG1        0.0830
     13 H          -1.5191    1.8031    0.0000 H       1  LIG1        0.1669
     14 H          -2.7710    0.1062    0.0000 H       1  LIG1        0.1027
@<TRIPOS>BOND
     1     1     2    2
     2     2     3   ar
     3     3     4   ar
     4     4     5   ar
     5     5     6   ar
     6     6     7   ar
     7     7     8   ar
     8     8     9   ar
     9     5     9   ar
    10     9    10   ar
    11     2    10   ar
    12     3    11    1
    13     4    12    1
    14     6    13    1
    15     7    14    1
