@<TRIPOS>MOLECULE
Cn1cnn2cccc12
 16 17 0 0 0
SMALL
GASTEIGER
Energy = 0

@<TRIPOS>ATOM
      1 C           0.9027   -1.3064    0.0000 C.3     1  LIG1        0.0146
      2 N           0.6477   -0.5218    0.0000 N.ar    1  LIG1       -0.3184
      3 C           1.1326    0.1457    0.0000 C.ar    1  LIG1        0.1182
      4 N           0.6477    0.8131    0.0000 N.ar    1  LIG1       -0.1554
      5 N          -0.1369    0.5582    0.0000 N.ar    1  LIG1       -0.2221
      6 C          -0.9215    0.8131    0.0000 C.ar    1  LIG1        0.0315
      7 C          -1.4064    0.1457    0.0000 C.ar    1  LIG1       -0.0401
      8 C          -0.9215   -0.5218    0.0000 C.ar    1  LIG1       -0.0177
      9 C          -0.1369   -0.2668    0.0000 C.ar    1  LIG1        0.1358
     10 H           2.0423   -1.3362    0.0000 H       1  LIG1        0.0457
     11 H           0.4936   -1.8544   -0.9121 H       1  LIG1        0.0457
     12 H           0.5142   -1.8267    0.9370 H       1  LIG1        0.0457
     13 H           2.2341    0.1457    0.0000 H       1  LIG1        0.1047
     14 H          -1.2619    1.8607    0.0000 H       1  LIG1        0.0831
     15 H          -2.5079    0.1457    0.0000 H       1  LIG1        0.0634
     16 H          -1.2619   -1.5694    0.0000 H       1  LIG1        0.0654
@<TRIPOS>BOND
     1     1     2    1
     2     2     3   ar
     3     3     4   ar
     4     4     5   ar
     5     5     6   ar
     6     6     7   ar
     7     7     8   ar
     8     8     9   ar
     9     2     9   ar
    10     5     9   ar
    11     1    10    1
    12     1    11    1
    13     1    12    1
    14     3    13    1
    15     6    14    1
    16     7    15    1
    17     8    16    1
