@<TRIPOS>MOLECULE
Cn1ccc2cc[nH]c2c1=O
 19 20 0 0 0
SMALL
GASTEIGER
Energy = 0

@<TRIPOS>ATOM
      1 C          -1.7447   -0.5505    0.0000 C.3     1  LIG1        0.0148
      2 N          -1.0303   -0.1380    0.0000 N.ar    1  LIG1       -0.3165
      3 C          -1.0303    0.6870    0.0000 C.ar    1  LIG1        0.0083
      4 C          -0.3158    1.0995    0.0000 C.ar    1  LIG1       -0.0362
      5 C           0.3987    0.6870    0.0000 C.ar    1  LIG1        0.0063
      6 C           0.3987   -0.1380    0.0000 C.ar    1  LIG1        0.1119
      7 N           1.1833   -0.3929    0.0000 N.ar    1  LIG1       -0.3565
      8 C           1.6682    0.2745    0.0000 C.ar    1  LIG1        0.0029
      9 C           1.1833    0.9420    0.0000 C.ar    1  LIG1       -0.0364
     10 C          -0.3158   -0.5505    0.0000 C.ar    1  LIG1        0.2751
     11 O          -0.3158   -1.3755    0.0000 O.2     1  LIG1       -0.2654
     12 H          -2.6116    0.1898    0.0000 H       1  LIG1        0.0457
     13 H          -1.8072   -1.2315    0.9121 H       1  LIG1        0.0457
     14 H          -1.8041   -1.1971   -0.9370 H       1  LIG1        0.0457
     15 H          -1.9842    1.2378    0.0000 H       1  LIG1        0.0810
     16 H          -0.3158    2.2010    0.0000 H       1  LIG1        0.0639
     17 H           1.5178   -1.4224    0.0000 H       1  LIG1        0.1655
     18 H           2.7697    0.2745    0.0000 H       1  LIG1        0.0807
     19 H           1.5237    1.9896    0.0000 H       1  LIG1        0.0638
@<TRIPOS>BOND
     1     1     2    1
     2     2     3   ar
     3     3     4   ar
     4     4     5   ar
     5     5     6   ar
     6     6     7   ar
     7     7     8   ar
     8     8     9   ar
     9     5     9   ar
    10     6    10   ar
    11     2    10   ar
    12    10    11    2
    13     1    12    1
    14     1    13    1
    15     1    14    1
    16     3    15    1
    17     4    16    1
    18     7    17    1
    19     8    18    1
    20     9    19    1
