@<TRIPOS>MOLECULE
O=c1cc2ccoc2c[nH]1
 15 16 0 0 0
SMALL
GASTEIGER
Energy = 0

@<TRIPOS>ATOM
      1 O           1.7482   -0.7503    0.0000 O.2     1  LIG1       -0.2679
      2 C           1.0337   -0.3378    0.0000 C.ar    1  LIG1        0.2495
      3 N           1.0337    0.4872    0.0000 N.ar    1  LIG1       -0.3256
      4 C           0.3193    0.8997    0.0000 C.ar    1  LIG1        0.0478
      5 C          -0.3952    0.4872    0.0000 C.ar    1  LIG1        0.1508
      6 O          -1.1798    0.7421    0.0000 O.2     1  LIG1       -0.4615
      7 C          -1.6647    0.0747    0.0000 C.ar    1  LIG1        0.0932
      8 C          -1.1798   -0.5928    0.0000 C.ar    1  LIG1       -0.0159
      9 C          -0.3952   -0.3378    0.0000 C.ar    1  LIG1        0.0267
     10 C           0.3193   -0.7503    0.0000 C.ar    1  LIG1        0.0135
     11 H           1.9712    1.0284    0.0000 H       1  LIG1        0.1684
     12 H           0.3193    2.0012    0.0000 H       1  LIG1        0.0845
     13 H          -2.7662    0.0747    0.0000 H       1  LIG1        0.1030
     14 H          -1.5202   -1.6404    0.0000 H       1  LIG1        0.0655
     15 H           0.3193   -1.8518    0.0000 H       1  LIG1        0.0679
@<TRIPOS>BOND
     1     1     2    2
     2     2     3   ar
     3     3     4   ar
     4     4     5   ar
     5     5     6   ar
     6     6     7   ar
     7     7     8   ar
     8     8     9   ar
     9     5     9   ar
    10     9    10   ar
    11     2    10   ar
    12     3    11    1
    13     4    12    1
    14     7    13    1
    15     8    14    1
    16    10    15    1
