@<TRIPOS>MOLECULE
O=c1nc2nc[nH]cc2[nH]1
 14 15 0 0 0
SMALL
GASTEIGER
Energy = 0

@<TRIPOS>ATOM
      1 O           1.9812    0.0062    0.0000 O.2     1  LIG1       -0.2446
      2 C           1.1562    0.0062    0.0000 C.ar    1  LIG1        0.3483
      3 N           0.6713    0.6737    0.0000 N.ar    1  LIG1       -0.3020
      4 C          -0.1134    0.4187    0.0000 C.ar    1  LIG1        0.1041
      5 C          -0.8278    0.8312    0.0000 C.ar    1  LIG1        0.0301
      6 N          -1.5423    0.4187    0.0000 N.ar    1  LIG1       -0.3502
      7 C          -1.5423   -0.4063    0.0000 C.ar    1  LIG1        0.0958
      8 N          -0.8278   -0.8188    0.0000 N.ar    1  LIG1       -0.2164
      9 C          -0.1134   -0.4063    0.0000 C.ar    1  LIG1        0.1843
     10 N           0.6713   -0.6612    0.0000 N.ar    1  LIG1       -0.1718
     11 H           1.0058    1.7032    0.0000 H       1  LIG1        0.1706
     12 H          -0.8278    1.9327    0.0000 H       1  LIG1        0.0829
     13 H          -2.4798    0.9600    0.0000 H       1  LIG1        0.1662
     14 H          -2.4962   -0.9571    0.0000 H       1  LIG1        0.1027
@<TRIPOS>BOND
     1     1     2    2
     2     2     3   ar
     3     3     4   ar
     4     4     5   ar
     5     5     6   ar
     6     6     7   ar
     7     7     8   ar
     8     8     9   ar
     9     4     9   ar
    10     9    10   ar
    11     2    10   ar
    12     3    11    1
    13     5    12    1
    14     6    13    1
    15     7    14    1
