@<TRIPOS>MOLECULE
O=c1ccc2c[nH]c(=O)nc2[nH]1
 17 18 0 0 0
SMALL
GASTEIGER
Energy = 0

@<TRIPOS>ATOM
      1 O           2.1615    0.6424    0.0000 O.2     1  LIG1       -0.2679
      2 C           1.4470    0.2299    0.0000 C.ar    1  LIG1        0.2503
      3 N           0.7325    0.6424    0.0000 N.ar    1  LIG1       -0.3068
      4 C           0.0180    0.2299    0.0000 C.ar    1  LIG1        0.1476
      5 N          -0.6964    0.6424    0.0000 N.ar    1  LIG1       -0.1752
      6 C          -1.4109    0.2299    0.0000 C.ar    1  LIG1        0.3477
      7 O          -2.1254    0.6424    0.0000 O.2     1  LIG1       -0.2447
      8 N          -1.4109   -0.5951    0.0000 N.ar    1  LIG1       -0.3123
      9 C          -0.6964   -1.0076    0.0000 C.ar    1  LIG1        0.0170
     10 C           0.0180   -0.5951    0.0000 C.ar    1  LIG1        0.0337
     11 C           0.7325   -1.0076    0.0000 C.ar    1  LIG1       -0.0446
     12 C           1.4470   -0.5951    0.0000 C.ar    1  LIG1        0.0035
     13 H           0.7325    1.7249    0.0000 H       1  LIG1        0.1704
     14 H          -2.3484   -1.1364    0.0000 H       1  LIG1        0.1699
     15 H          -0.6964   -2.1091    0.0000 H       1  LIG1        0.0815
     16 H           0.7325   -2.1091    0.0000 H       1  LIG1        0.0627
     17 H           2.4009   -1.1459    0.0000 H       1  LIG1        0.0672
@<TRIPOS>BOND
     1     1     2    2
     2     2     3   ar
     3     3     4   ar
     4     4     5   ar
     5     5     6   ar
     6     6     7    2
     7     6     8   ar
     8     8     9   ar
     9     9    10   ar
    10     4    10   ar
    11    10    11   ar
    12    11    12   ar
    13     2    12   ar
    14     3    13    1
    15     8    14    1
    16     9    15    1
    17    11    16    1
    18    12    17    1
