@<TRIPOS>MOLECULE
O=c1[nH]nc2cccnn12
 14 15 0 0 0
SMALL
GASTEIGER
Energy = 0

@<TRIPOS>ATOM
      1 O           1.0251   -1.2676    0.0000 O.2     1  LIG1       -0.2431
      2 C           0.7701   -0.4829    0.0000 C.ar    1  LIG1        0.3650
      3 N           1.2550    0.1845    0.0000 N.ar    1  LIG1       -0.2248
      4 N           0.7701    0.8519    0.0000 N.ar    1  LIG1       -0.1500
      5 C          -0.0145    0.5970    0.0000 C.ar    1  LIG1        0.1791
      6 C          -0.7290    1.0095    0.0000 C.ar    1  LIG1       -0.0141
      7 C          -1.4434    0.5970    0.0000 C.ar    1  LIG1       -0.0384
      8 C          -1.4434   -0.2280    0.0000 C.ar    1  LIG1        0.0487
      9 N          -0.7290   -0.6405    0.0000 N.ar    1  LIG1       -0.1691
     10 N          -0.0145   -0.2280    0.0000 N.ar    1  LIG1       -0.1608
     11 H           2.3375    0.1845    0.0000 H       1  LIG1        0.1937
     12 H          -0.7290    2.1110    0.0000 H       1  LIG1        0.0656
     13 H          -2.3973    1.1477    0.0000 H       1  LIG1        0.0634
     14 H          -2.3973   -0.7787    0.0000 H       1  LIG1        0.0847
@<TRIPOS>BOND
     1     1     2    2
     2     2     3   ar
     3     3     4   ar
     4     4     5   ar
     5     5     6   ar
     6     6     7   ar
     7     7     8   ar
     8     8     9   ar
     9     9    10   ar
    10     2    10   ar
    11     5    10   ar
    12     3    11    1
    13     6    12    1
    14     7    13    1
    15     8    14    1
