@<TRIPOS>MOLECULE
c1nc2cnnnc2o1
 11 12 0 0 0
SMALL
GASTEIGER
Energy = 0

@<TRIPOS>ATOM
      1 O           0.9497   -0.6426    0.0000 O.2     1  LIG1       -0.4232
      2 C           1.4347    0.0248    0.0000 C.ar    1  LIG1        0.1852
      3 N           0.9497    0.6922    0.0000 N.ar    1  LIG1       -0.2128
      4 C           0.1651    0.4373    0.0000 C.ar    1  LIG1        0.1501
      5 C          -0.5493    0.8498    0.0000 C.ar    1  LIG1        0.0823
      6 N          -1.2638    0.4373    0.0000 N.ar    1  LIG1       -0.1354
      7 N          -1.2638   -0.3877    0.0000 N.ar    1  LIG1       -0.0397
      8 N          -0.5493   -0.8002    0.0000 N.ar    1  LIG1       -0.0889
      9 C           0.1651   -0.3877    0.0000 C.ar    1  LIG1        0.2696
     10 H           2.5362    0.0248    0.0000 H       1  LIG1        0.1256
     11 H          -0.5493    1.9513    0.0000 H       1  LIG1        0.0872
@<TRIPOS>BOND
     1     1     2   ar
     2     2     3   ar
     3     3     4   ar
     4     4     5   ar
     5     5     6   ar
     6     6     7   ar
     7     7     8   ar
     8     8     9   ar
     9     1     9   ar
    10     4     9   ar
    11     2    10    1
    12     5    11    1
