@<TRIPOS>MOLECULE
Cn1cncc2cncc12
 17 18 0 0 0
SMALL
GASTEIGER
Energy = 0

@<TRIPOS>ATOM
      1 C           0.4947   -1.4863    0.0000 C.3     1  LIG1        0.0133
      2 N           0.4947   -0.6613    0.0000 N.ar    1  LIG1       -0.3332
      3 C           1.2091   -0.2488    0.0000 C.ar    1  LIG1        0.0961
      4 N           1.2091    0.5762    0.0000 N.ar    1  LIG1       -0.2448
      5 C           0.4947    0.9887    0.0000 C.ar    1  LIG1        0.0398
      6 C          -0.2198    0.5762    0.0000 C.ar    1  LIG1        0.0361
      7 C          -1.0044    0.8311    0.0000 C.ar    1  LIG1        0.0382
      8 N          -1.4894    0.1637    0.0000 N.ar    1  LIG1       -0.2605
      9 C          -1.0044   -0.5037    0.0000 C.ar    1  LIG1        0.0517
     10 C          -0.2198   -0.2488    0.0000 C.ar    1  LIG1        0.0711
     11 H           1.5693   -1.8668    0.0000 H       1  LIG1        0.0456
     12 H          -0.0638   -1.8810   -0.9121 H       1  LIG1        0.0456
     13 H          -0.0355   -1.8610    0.9370 H       1  LIG1        0.0456
     14 H           2.1630   -0.7995    0.0000 H       1  LIG1        0.1029
     15 H           0.4947    2.0902    0.0000 H       1  LIG1        0.0837
     16 H          -1.3447    1.8787    0.0000 H       1  LIG1        0.0837
     17 H          -1.3447   -1.5513    0.0000 H       1  LIG1        0.0851
@<TRIPOS>BOND
     1     1     2    1
     2     2     3   ar
     3     3     4   ar
     4     4     5   ar
     5     5     6   ar
     6     6     7   ar
     7     7     8   ar
     8     8     9   ar
     9     9    10   ar
    10     2    10   ar
    11     6    10   ar
    12     1    11    1
    13     1    12    1
    14     1    13    1
    15     3    14    1
    16     5    15    1
    17     7    16    1
    18     9    17    1
