@<TRIPOS>MOLECULE
Cn1cnnc2ccnc12
 16 17 0 0 0
SMALL
GASTEIGER
Energy = 0

@<TRIPOS>ATOM
      1 C           0.4794   -1.4913    0.0000 C.3     1  LIG1        0.0147
      2 N           0.4794   -0.6663    0.0000 N.ar    1  LIG1       -0.3167
      3 C           1.1939   -0.2538    0.0000 C.ar    1  LIG1        0.1198
      4 N           1.1939    0.5712    0.0000 N.ar    1  LIG1       -0.1389
      5 N           0.4794    0.9837    0.0000 N.ar    1  LIG1       -0.1447
      6 C          -0.2351    0.5712    0.0000 C.ar    1  LIG1        0.1299
      7 C          -1.0197    0.8261    0.0000 C.ar    1  LIG1       -0.0128
      8 C          -1.5046    0.1587    0.0000 C.ar    1  LIG1        0.0321
      9 N          -1.0197   -0.5088    0.0000 N.ar    1  LIG1       -0.2357
     10 C          -0.2351   -0.2538    0.0000 C.ar    1  LIG1        0.1618
     11 H           1.5540   -1.8718    0.0000 H       1  LIG1        0.0457
     12 H          -0.0791   -1.8860   -0.9121 H       1  LIG1        0.0457
     13 H          -0.0508   -1.8660    0.9370 H       1  LIG1        0.0457
     14 H           2.1478   -0.8046    0.0000 H       1  LIG1        0.1048
     15 H          -1.3601    1.8737    0.0000 H       1  LIG1        0.0656
     16 H          -2.6061    0.1587    0.0000 H       1  LIG1        0.0831
@<TRIPOS>BOND
     1     1     2    1
     2     2     3   ar
     3     3     4   ar
     4     4     5   ar
     5     5     6   ar
     6     6     7   ar
     7     7     8   ar
     8     8     9   ar
     9     9    10   ar
    10     2    10   ar
    11     6    10   ar
    12     1    11    1
    13     1    12    1
    14     1    13    1
    15     3    14    1
    16     7    15    1
    17     8    16    1
