@<TRIPOS>MOLECULE
O=c1ncc2ncnnc2[nH]1
 14 15 0 0 0
SMALL
GASTEIGER
Energy = 0

@<TRIPOS>ATOM
      1 O           1.9184    0.7234    0.0000 O.2     1  LIG1       -0.2447
      2 C           1.2040    0.3109    0.0000 C.ar    1  LIG1        0.3475
      3 N           0.4895    0.7234    0.0000 N.ar    1  LIG1       -0.2879
      4 C          -0.2250    0.3109    0.0000 C.ar    1  LIG1        0.1841
      5 N          -0.9395    0.7234    0.0000 N.ar    1  LIG1       -0.1278
      6 N          -1.6539    0.3109    0.0000 N.ar    1  LIG1       -0.1358
      7 C          -1.6539   -0.5141    0.0000 C.ar    1  LIG1        0.1391
      8 N          -0.9395   -0.9266    0.0000 N.ar    1  LIG1       -0.2290
      9 C          -0.2250   -0.5141    0.0000 C.ar    1  LIG1        0.1278
     10 C           0.4895   -0.9266    0.0000 C.ar    1  LIG1        0.0620
     11 N           1.2040   -0.5141    0.0000 N.ar    1  LIG1       -0.1993
     12 H           0.4895    1.8059    0.0000 H       1  LIG1        0.1720
     13 H          -2.6078   -1.0648    0.0000 H       1  LIG1        0.1066
     14 H           0.4895   -2.0281    0.0000 H       1  LIG1        0.0854
@<TRIPOS>BOND
     1     1     2    2
     2     2     3   ar
     3     3     4   ar
     4     4     5   ar
     5     5     6   ar
     6     6     7   ar
     7     7     8   ar
     8     8     9   ar
     9     4     9   ar
    10     9    10   ar
    11    10    11   ar
    12     2    11   ar
    13     3    12    1
    14     7    13    1
    15    10    14    1
