@<TRIPOS>MOLECULE
O=c1ccn2nccc2[nH]1
 15 16 0 0 0
SMALL
GASTEIGER
Energy = 0

@<TRIPOS>ATOM
      1 O           1.7472    0.7274    0.0000 O.2     1  LIG1       -0.2678
      2 C           1.0327    0.3149    0.0000 C.ar    1  LIG1        0.2517
      3 N           0.3182    0.7274    0.0000 N.ar    1  LIG1       -0.3073
      4 C          -0.3962    0.3149    0.0000 C.ar    1  LIG1        0.1365
      5 C          -1.1809    0.5699    0.0000 C.ar    1  LIG1        0.0005
      6 C          -1.6658   -0.0976    0.0000 C.ar    1  LIG1        0.0518
      7 N          -1.1809   -0.7650    0.0000 N.ar    1  LIG1       -0.1734
      8 N          -0.3962   -0.5101    0.0000 N.ar    1  LIG1       -0.2234
      9 C           0.3182   -0.9226    0.0000 C.ar    1  LIG1        0.0365
     10 C           1.0327   -0.5101    0.0000 C.ar    1  LIG1        0.0210
     11 H           0.3182    1.8099    0.0000 H       1  LIG1        0.1703
     12 H          -1.5213    1.6175    0.0000 H       1  LIG1        0.0670
     13 H          -2.7673   -0.0976    0.0000 H       1  LIG1        0.0848
     14 H           0.3182   -2.0241    0.0000 H       1  LIG1        0.0832
     15 H           1.9866   -1.0609    0.0000 H       1  LIG1        0.0687
@<TRIPOS>BOND
     1     1     2    2
     2     2     3   ar
     3     3     4   ar
     4     4     5   ar
     5     5     6   ar
     6     6     7   ar
     7     7     8   ar
     8     4     8   ar
     9     8     9   ar
    10     9    10   ar
    11     2    10   ar
    12     3    11    1
    13     5    12    1
    14     6    13    1
    15     9    14    1
    16    10    15    1
