@<TRIPOS>MOLECULE
O=c1ncn2ccsc2n1
 13 14 0 0 0
SMALL
GASTEIGER
Energy = 0

@<TRIPOS>ATOM
      1 O           1.8755   -0.6479    0.0000 O.2     1  LIG1       -0.2425
      2 C           1.1610   -0.2354    0.0000 C.ar    1  LIG1        0.3713
      3 N           1.1610    0.5896    0.0000 N.ar    1  LIG1       -0.1814
      4 C           0.4465    1.0021    0.0000 C.ar    1  LIG1        0.1073
      5 N          -0.2679    0.5896    0.0000 N.ar    1  LIG1       -0.2853
      6 C          -1.0526    0.8445    0.0000 C.ar    1  LIG1        0.0197
      7 C          -1.5375    0.1771    0.0000 C.ar    1  LIG1       -0.0043
      8 S          -1.0526   -0.4904    0.0000 S.2     1  LIG1       -0.0575
      9 C          -0.2679   -0.2354    0.0000 C.ar    1  LIG1        0.1834
     10 N           0.4465   -0.6479    0.0000 N.ar    1  LIG1       -0.1668
     11 H           0.4465    2.1036    0.0000 H       1  LIG1        0.1034
     12 H          -1.3930    1.8921    0.0000 H       1  LIG1        0.0819
     13 H          -2.6390    0.1771    0.0000 H       1  LIG1        0.0709
@<TRIPOS>BOND
     1     1     2    2
     2     2     3   ar
     3     3     4   ar
     4     4     5   ar
     5     5     6   ar
     6     6     7   ar
     7     7     8   ar
     8     8     9   ar
     9     5     9   ar
    10     9    10   ar
    11     2    10   ar
    12     4    11    1
    13     6    12    1
    14     7    13    1
