@<TRIPOS>MOLECULE
O=c1ccn2[nH]cnc2n1
 14 15 0 0 0
SMALL
GASTEIGER
Energy = 0

@<TRIPOS>ATOM
      1 O           1.7650   -0.7188    0.0000 O.2     1  LIG1       -0.2657
      2 C           1.0505   -0.3063    0.0000 C.ar    1  LIG1        0.2748
      3 C           1.0505    0.5187    0.0000 C.ar    1  LIG1        0.0229
      4 C           0.3361    0.9312    0.0000 C.ar    1  LIG1        0.0360
      5 N          -0.3784    0.5187    0.0000 N.ar    1  LIG1       -0.2271
      6 N          -1.1630    0.7736    0.0000 N.ar    1  LIG1       -0.2802
      7 C          -1.6479    0.1062    0.0000 C.ar    1  LIG1        0.1121
      8 N          -1.1630   -0.5613    0.0000 N.ar    1  LIG1       -0.1998
      9 C          -0.3784   -0.3063    0.0000 C.ar    1  LIG1        0.2542
     10 N           0.3361   -0.7188    0.0000 N.ar    1  LIG1       -0.1717
     11 H           2.0044    1.0694    0.0000 H       1  LIG1        0.0687
     12 H           0.3361    2.0327    0.0000 H       1  LIG1        0.0832
     13 H          -1.4975    1.8031    0.0000 H       1  LIG1        0.1884
     14 H          -2.7494    0.1062    0.0000 H       1  LIG1        0.1042
@<TRIPOS>BOND
     1     1     2    2
     2     2     3   ar
     3     3     4   ar
     4     4     5   ar
     5     5     6   ar
     6     6     7   ar
     7     7     8   ar
     8     8     9   ar
     9     5     9   ar
    10     9    10   ar
    11     2    10   ar
    12     3    11    1
    13     4    12    1
    14     6    13    1
    15     7    14    1
