@<TRIPOS>MOLECULE
O=c1[nH]c(=O)c2ncncc2[nH]1
 16 17 0 0 0
SMALL
GASTEIGER
Energy = 0

@<TRIPOS>ATOM
      1 O           1.8578   -0.9075    0.0000 O.2     1  LIG1       -0.2467
      2 C           1.1433   -0.4950    0.0000 C.ar    1  LIG1        0.3273
      3 N           1.1433    0.3300    0.0000 N.ar    1  LIG1       -0.2733
      4 C           0.4289    0.7425    0.0000 C.ar    1  LIG1        0.2802
      5 O           0.4289    1.5675    0.0000 O.2     1  LIG1       -0.2654
      6 C          -0.2856    0.3300    0.0000 C.ar    1  LIG1        0.1545
      7 N          -1.0001    0.7425    0.0000 N.ar    1  LIG1       -0.2285
      8 C          -1.7146    0.3300    0.0000 C.ar    1  LIG1        0.1169
      9 N          -1.7146   -0.4950    0.0000 N.ar    1  LIG1       -0.2416
     10 C          -1.0001   -0.9075    0.0000 C.ar    1  LIG1        0.0550
     11 C          -0.2856   -0.4950    0.0000 C.ar    1  LIG1        0.0924
     12 N           0.4289   -0.9075    0.0000 N.ar    1  LIG1       -0.3046
     13 H           2.0808    0.8712    0.0000 H       1  LIG1        0.1735
     14 H          -2.6685    0.8808    0.0000 H       1  LIG1        0.1047
     15 H          -1.0001   -2.0090    0.0000 H       1  LIG1        0.0852
     16 H           0.4289   -1.9900    0.0000 H       1  LIG1        0.1705
@<TRIPOS>BOND
     1     1     2    2
     2     2     3   ar
     3     3     4   ar
     4     4     5    2
     5     4     6   ar
     6     6     7   ar
     7     7     8   ar
     8     8     9   ar
     9     9    10   ar
    10    10    11   ar
    11     6    11   ar
    12    11    12   ar
    13     2    12   ar
    14     3    13    1
    15     8    14    1
    16    10    15    1
    17    12    16    1
