@<TRIPOS>MOLECULE
c1ncsn1
 7 7 0 0 0
SMALL
GASTEIGER
Energy = 0

@<TRIPOS>ATOM
      1 S          -0.1620   -0.5181    0.0000 S.2     1  LIG1        0.0247
      2 C           0.6227   -0.2631    0.0000 C.ar    1  LIG1        0.0848
      3 N           0.6227    0.5619    0.0000 N.ar    1  LIG1       -0.2346
      4 C          -0.1620    0.8168    0.0000 C.ar    1  LIG1        0.1251
      5 N          -0.6469    0.1494    0.0000 N.ar    1  LIG1       -0.1977
      6 H           1.5138   -0.9105    0.0000 H       1  LIG1        0.0923
      7 H          -0.5024    1.8644    0.0000 H       1  LIG1        0.1054
@<TRIPOS>BOND
     1     1     2   ar
     2     2     3   ar
     3     3     4   ar
     4     4     5   ar
     5     1     5   ar
     6     2     6    1
     7     4     7    1
