@<TRIPOS>MOLECULE
c1[nH]cc2nnncc12
 13 14 0 0 0
SMALL
GASTEIGER
Energy = 0

@<TRIPOS>ATOM
      1 N           1.4590    0.0142    0.0000 N.ar    1  LIG1       -0.3646
      2 C           0.9740    0.6816    0.0000 C.ar    1  LIG1        0.0125
      3 C           0.1894    0.4267    0.0000 C.ar    1  LIG1        0.0393
      4 C          -0.5250    0.8392    0.0000 C.ar    1  LIG1        0.0623
      5 N          -1.2395    0.4267    0.0000 N.ar    1  LIG1       -0.1371
      6 N          -1.2395   -0.3983    0.0000 N.ar    1  LIG1       -0.0427
      7 N          -0.5250   -0.8108    0.0000 N.ar    1  LIG1       -0.1278
      8 C           0.1894   -0.3983    0.0000 C.ar    1  LIG1        0.1137
      9 C           0.9740   -0.6533    0.0000 C.ar    1  LIG1        0.0298
     10 H           2.5415    0.0142    0.0000 H       1  LIG1        0.1648
     11 H           1.3143    1.7292    0.0000 H       1  LIG1        0.0814
     12 H          -0.5250    1.9407    0.0000 H       1  LIG1        0.0856
     13 H           1.3143   -1.7009    0.0000 H       1  LIG1        0.0829
@<TRIPOS>BOND
     1     1     2   ar
     2     2     3   ar
     3     3     4   ar
     4     4     5   ar
     5     5     6   ar
     6     6     7   ar
     7     7     8   ar
     8     3     8   ar
     9     8     9   ar
    10     1     9   ar
    11     1    10    1
    12     2    11    1
    13     4    12    1
    14     9    13    1
