@<TRIPOS>MOLECULE
Cn1cnc2cnsc2c1=O
 16 17 0 0 0
SMALL
GASTEIGER
Energy = 0

@<TRIPOS>ATOM
      1 C          -1.8932   -0.5236    0.0000 C.3     1  LIG1        0.0161
      2 N          -1.1787   -0.1111    0.0000 N.ar    1  LIG1       -0.3014
      3 C          -1.1787    0.7139    0.0000 C.ar    1  LIG1        0.0991
      4 N          -0.4642    1.1264    0.0000 N.ar    1  LIG1       -0.2348
      5 C           0.2502    0.7139    0.0000 C.ar    1  LIG1        0.1045
      6 C           0.2502   -0.1111    0.0000 C.ar    1  LIG1        0.1218
      7 S           1.0349   -0.3661    0.0000 S.2     1  LIG1        0.0186
      8 N           1.5198    0.3014    0.0000 N.ar    1  LIG1       -0.2158
      9 C           1.0349    0.9688    0.0000 C.ar    1  LIG1        0.0628
     10 C          -0.4642   -0.5236    0.0000 C.ar    1  LIG1        0.2695
     11 O          -0.4642   -1.3486    0.0000 O.2     1  LIG1       -0.2663
     12 H          -2.7600    0.2168    0.0000 H       1  LIG1        0.0457
     13 H          -1.9558   -1.2046    0.9121 H       1  LIG1        0.0457
     14 H          -1.9526   -1.1702   -0.9370 H       1  LIG1        0.0457
     15 H          -2.1326    1.2647    0.0000 H       1  LIG1        0.1030
     16 H           1.3753    2.0164    0.0000 H       1  LIG1        0.0858
@<TRIPOS>BOND
     1     1     2    1
     2     2     3   ar
     3     3     4   ar
     4     4     5   ar
     5     5     6   ar
     6     6     7   ar
     7     7     8   ar
     8     8     9   ar
     9     5     9   ar
    10     6    10   ar
    11     2    10   ar
    12    10    11    2
    13     1    12    1
    14     1    13    1
    15     1    14    1
    16     3    15    1
    17     9    16    1
