@<TRIPOS>MOLECULE
O=c1nnc2cncnc2[nH]1
 14 15 0 0 0
SMALL
GASTEIGER
Energy = 0

@<TRIPOS>ATOM
      1 O           1.8989    0.7346    0.0000 O.2     1  LIG1       -0.2430
      2 C           1.1844    0.3221    0.0000 C.ar    1  LIG1        0.3657
      3 N           0.4700    0.7346    0.0000 N.ar    1  LIG1       -0.2880
      4 C          -0.2445    0.3221    0.0000 C.ar    1  LIG1        0.1654
      5 N          -0.9590    0.7346    0.0000 N.ar    1  LIG1       -0.2162
      6 C          -1.6735    0.3221    0.0000 C.ar    1  LIG1        0.1183
      7 N          -1.6735   -0.5029    0.0000 N.ar    1  LIG1       -0.2414
      8 C          -0.9590   -0.9154    0.0000 C.ar    1  LIG1        0.0600
      9 C          -0.2445   -0.5029    0.0000 C.ar    1  LIG1        0.1465
     10 N           0.4700   -0.9154    0.0000 N.ar    1  LIG1       -0.1398
     11 N           1.1844   -0.5029    0.0000 N.ar    1  LIG1       -0.0896
     12 H           0.4700    1.8171    0.0000 H       1  LIG1        0.1720
     13 H          -2.6274    0.8729    0.0000 H       1  LIG1        0.1047
     14 H          -0.9590   -2.0169    0.0000 H       1  LIG1        0.0853
@<TRIPOS>BOND
     1     1     2    2
     2     2     3   ar
     3     3     4   ar
     4     4     5   ar
     5     5     6   ar
     6     6     7   ar
     7     7     8   ar
     8     8     9   ar
     9     4     9   ar
    10     9    10   ar
    11    10    11   ar
    12     2    11   ar
    13     3    12    1
    14     6    13    1
    15     8    14    1
