@<TRIPOS>MOLECULE
O=c1[nH][nH]c2ncccc12
 15 16 0 0 0
SMALL
GASTEIGER
Energy = 0

@<TRIPOS>ATOM
      1 O           1.0248   -1.2964    0.0000 O.2     1  LIG1       -0.2657
      2 C           0.7699   -0.5117    0.0000 C.ar    1  LIG1        0.2738
      3 N           1.2548    0.1557    0.0000 N.ar    1  LIG1       -0.2639
      4 N           0.7699    0.8231    0.0000 N.ar    1  LIG1       -0.2802
      5 C          -0.0147    0.5682    0.0000 C.ar    1  LIG1        0.1578
      6 N          -0.7292    0.9807    0.0000 N.ar    1  LIG1       -0.2360
      7 C          -1.4437    0.5682    0.0000 C.ar    1  LIG1        0.0300
      8 C          -1.4437   -0.2568    0.0000 C.ar    1  LIG1       -0.0427
      9 C          -0.7292   -0.6693    0.0000 C.ar    1  LIG1       -0.0444
     10 C          -0.0147   -0.2568    0.0000 C.ar    1  LIG1        0.0841
     11 H           2.3373    0.1557    0.0000 H       1  LIG1        0.1900
     12 H           1.1044    1.8526    0.0000 H       1  LIG1        0.1884
     13 H          -2.3976    1.1190    0.0000 H       1  LIG1        0.0830
     14 H          -2.3976   -0.8076    0.0000 H       1  LIG1        0.0633
     15 H          -0.7292   -1.7708    0.0000 H       1  LIG1        0.0627
@<TRIPOS>BOND
     1     1     2    2
     2     2     3   ar
     3     3     4   ar
     4     4     5   ar
     5     5     6   ar
     6     6     7   ar
     7     7     8   ar
     8     8     9   ar
     9     9    10   ar
    10     2    10   ar
    11     5    10   ar
    12     3    11    1
    13     4    12    1
    14     7    13    1
    15     8    14    1
    16     9    15    1
