@<TRIPOS>MOLECULE
c1c[nH]nn1
 8 8 0 0 0
SMALL
GASTEIGER
Energy = 0

@<TRIPOS>ATOM
      1 N          -0.1825   -0.6674    0.0000 N.ar    1  LIG1       -0.2649
      2 C           0.6021   -0.4125    0.0000 C.ar    1  LIG1        0.0423
      3 C           0.6021    0.4125    0.0000 C.ar    1  LIG1        0.0690
      4 N          -0.1825    0.6674    0.0000 N.ar    1  LIG1       -0.1381
      5 N          -0.6675   -0.0000    0.0000 N.ar    1  LIG1       -0.0685
      6 H          -0.5170   -1.6969    0.0000 H       1  LIG1        0.1899
      7 H           1.4932   -1.0600    0.0000 H       1  LIG1        0.0840
      8 H           1.4932    1.0600    0.0000 H       1  LIG1        0.0864
@<TRIPOS>BOND
     1     1     2   ar
     2     2     3   ar
     3     3     4   ar
     4     4     5   ar
     5     1     5   ar
     6     1     6    1
     7     2     7    1
     8     3     8    1
