@<TRIPOS>MOLECULE
c1snc2cccnc12
 13 14 0 0 0
SMALL
GASTEIGER
Energy = 0

@<TRIPOS>ATOM
      1 S           1.2074   -0.0024    0.0000 S.2     1  LIG1        0.0060
      2 C           0.7225    0.6651    0.0000 C.ar    1  LIG1        0.0217
      3 C          -0.0621    0.4101    0.0000 C.ar    1  LIG1        0.0977
      4 N          -0.7766    0.8226    0.0000 N.ar    1  LIG1       -0.2529
      5 C          -1.4911    0.4101    0.0000 C.ar    1  LIG1        0.0284
      6 C          -1.4911   -0.4149    0.0000 C.ar    1  LIG1       -0.0415
      7 C          -0.7766   -0.8274    0.0000 C.ar    1  LIG1       -0.0321
      8 C          -0.0621   -0.4149    0.0000 C.ar    1  LIG1        0.0982
      9 N           0.7225   -0.6698    0.0000 N.ar    1  LIG1       -0.2088
     10 H           1.0629    1.7127    0.0000 H       1  LIG1        0.0730
     11 H          -2.4450    0.9609    0.0000 H       1  LIG1        0.0830
     12 H          -2.4450   -0.9657    0.0000 H       1  LIG1        0.0633
     13 H          -0.7766   -1.9289    0.0000 H       1  LIG1        0.0640
@<TRIPOS>BOND
     1     1     2   ar
     2     2     3   ar
     3     3     4   ar
     4     4     5   ar
     5     5     6   ar
     6     6     7   ar
     7     7     8   ar
     8     3     8   ar
     9     8     9   ar
    10     1     9   ar
    11     2    10    1
    12     5    11    1
    13     6    12    1
    14     7    13    1
