@<TRIPOS>MOLECULE
Cn1c(=O)cnc2ccoc12
 17 18 0 0 0
SMALL
GASTEIGER
Energy = 0

@<TRIPOS>ATOM
      1 C          -0.2981   -1.4024    0.0000 C.3     1  LIG1        0.0181
      2 N          -0.2981   -0.5774    0.0000 N.ar    1  LIG1       -0.2794
      3 C          -1.0126   -0.1649    0.0000 C.ar    1  LIG1        0.2719
      4 O          -1.7271   -0.5774    0.0000 O.2     1  LIG1       -0.2660
      5 C          -1.0126    0.6601    0.0000 C.ar    1  LIG1        0.0929
      6 N          -0.2981    1.0726    0.0000 N.ar    1  LIG1       -0.2448
      7 C           0.4163    0.6601    0.0000 C.ar    1  LIG1        0.1270
      8 C           0.4163   -0.1649    0.0000 C.ar    1  LIG1        0.2289
      9 O           1.2010   -0.4198    0.0000 O.2     1  LIG1       -0.4450
     10 C           1.6859    0.2476    0.0000 C.ar    1  LIG1        0.0966
     11 C           1.2010    0.9151    0.0000 C.ar    1  LIG1        0.0038
     12 H          -1.3727   -1.7829    0.0000 H       1  LIG1        0.0458
     13 H           0.2604   -1.7971    0.9121 H       1  LIG1        0.0458
     14 H           0.2321   -1.7771   -0.9370 H       1  LIG1        0.0458
     15 H          -1.9665    1.2109    0.0000 H       1  LIG1        0.0885
     16 H           2.7874    0.2476    0.0000 H       1  LIG1        0.1031
     17 H           1.5414    1.9627    0.0000 H       1  LIG1        0.0671
@<TRIPOS>BOND
     1     1     2    1
     2     2     3   ar
     3     3     4    2
     4     3     5   ar
     5     5     6   ar
     6     6     7   ar
     7     7     8   ar
     8     2     8   ar
     9     8     9   ar
    10     9    10   ar
    11    10    11   ar
    12     7    11   ar
    13     1    12    1
    14     1    13    1
    15     1    14    1
    16     5    15    1
    17    10    16    1
    18    11    17    1
