@<TRIPOS>MOLECULE
Cn1cc2ccc(=O)[nH]c2c1
 19 20 0 0 0
SMALL
GASTEIGER
Energy = 0

@<TRIPOS>ATOM
      1 C           2.2760   -0.1060    0.0000 C.3     1  LIG1        0.0114
      2 N           1.4510   -0.1060    0.0000 N.ar    1  LIG1       -0.3537
      3 C           0.9661    0.5615    0.0000 C.ar    1  LIG1        0.0283
      4 C           0.1814    0.3065    0.0000 C.ar    1  LIG1        0.0668
      5 N          -0.5330    0.7190    0.0000 N.ar    1  LIG1       -0.3209
      6 C          -1.2475    0.3065    0.0000 C.ar    1  LIG1        0.2492
      7 O          -1.9620    0.7190    0.0000 O.2     1  LIG1       -0.2679
      8 C          -1.2475   -0.5185    0.0000 C.ar    1  LIG1        0.0034
      9 C          -0.5330   -0.9310    0.0000 C.ar    1  LIG1       -0.0461
     10 C           0.1814   -0.5185    0.0000 C.ar    1  LIG1        0.0160
     11 C           0.9661   -0.7734    0.0000 C.ar    1  LIG1        0.0135
     12 H           2.6565    0.9686    0.0000 H       1  LIG1        0.0455
     13 H           2.6707   -0.6645   -0.9121 H       1  LIG1        0.0455
     14 H           2.6507   -0.6362    0.9370 H       1  LIG1        0.0455
     15 H           1.3065    1.6091    0.0000 H       1  LIG1        0.0830
     16 H          -0.5330    1.8015    0.0000 H       1  LIG1        0.1690
     17 H          -2.2014   -1.0693    0.0000 H       1  LIG1        0.0672
     18 H          -0.5330   -2.0325    0.0000 H       1  LIG1        0.0626
     19 H           1.3065   -1.8210    0.0000 H       1  LIG1        0.0815
@<TRIPOS>BOND
     1     1     2    1
     2     2     3   ar
     3     3     4   ar
     4     4     5   ar
     5     5     6   ar
     6     6     7    2
     7     6     8   ar
     8     8     9   ar
     9     9    10   ar
    10     4    10   ar
    11    10    11   ar
    12     2    11   ar
    13     1    12    1
    14     1    13    1
    15     1    14    1
    16     3    15    1
    17     5    16    1
    18     8    17    1
    19     9    18    1
    20    11    19    1
