@<TRIPOS>MOLECULE
c1cc2nc[nH]c2[nH]1
 13 14 0 0 0
SMALL
GASTEIGER
Energy = 0

@<TRIPOS>ATOM
      1 N           0.8000   -0.6544    0.0000 N.ar    1  LIG1       -0.3460
      2 C           1.2849    0.0131    0.0000 C.ar    1  LIG1        0.0056
      3 C           0.8000    0.6805    0.0000 C.ar    1  LIG1       -0.0167
      4 C           0.0153    0.4256    0.0000 C.ar    1  LIG1        0.1071
      5 C           0.0153   -0.3994    0.0000 C.ar    1  LIG1        0.1357
      6 N          -0.7693   -0.6544    0.0000 N.ar    1  LIG1       -0.3308
      7 C          -1.2542    0.0131    0.0000 C.ar    1  LIG1        0.0955
      8 N          -0.7693    0.6805    0.0000 N.ar    1  LIG1       -0.2343
      9 H           1.1345   -1.6839    0.0000 H       1  LIG1        0.1667
     10 H           2.3864    0.0131    0.0000 H       1  LIG1        0.0808
     11 H           1.1404    1.7281    0.0000 H       1  LIG1        0.0654
     12 H          -1.1038   -1.6839    0.0000 H       1  LIG1        0.1682
     13 H          -2.3557    0.0131    0.0000 H       1  LIG1        0.1027
@<TRIPOS>BOND
     1     1     2   ar
     2     2     3   ar
     3     3     4   ar
     4     4     5   ar
     5     1     5   ar
     6     5     6   ar
     7     6     7   ar
     8     7     8   ar
     9     4     8   ar
    10     1     9    1
    11     2    10    1
    12     3    11    1
    13     6    12    1
    14     7    13    1
