@<TRIPOS>MOLECULE
c1nsc2cnncc12
 12 13 0 0 0
SMALL
GASTEIGER
Energy = 0

@<TRIPOS>ATOM
      1 S           0.8206   -0.5676    0.0000 S.2     1  LIG1        0.0132
      2 N           1.3055    0.0998    0.0000 N.ar    1  LIG1       -0.2175
      3 C           0.8206    0.7672    0.0000 C.ar    1  LIG1        0.0459
      4 C           0.0360    0.5123    0.0000 C.ar    1  LIG1        0.0301
      5 C          -0.6785    0.9248    0.0000 C.ar    1  LIG1        0.0597
      6 N          -1.3930    0.5123    0.0000 N.ar    1  LIG1       -0.1570
      7 N          -1.3930   -0.3127    0.0000 N.ar    1  LIG1       -0.1565
      8 C          -0.6785   -0.7252    0.0000 C.ar    1  LIG1        0.0657
      9 C           0.0360   -0.3127    0.0000 C.ar    1  LIG1        0.0606
     10 H           1.1610    1.8148    0.0000 H       1  LIG1        0.0843
     11 H          -0.6785    2.0263    0.0000 H       1  LIG1        0.0855
     12 H          -0.6785   -1.8267    0.0000 H       1  LIG1        0.0860
@<TRIPOS>BOND
     1     1     2   ar
     2     2     3   ar
     3     3     4   ar
     4     4     5   ar
     5     5     6   ar
     6     6     7   ar
     7     7     8   ar
     8     8     9   ar
     9     1     9   ar
    10     4     9   ar
    11     3    10    1
    12     5    11    1
    13     8    12    1
