@<TRIPOS>MOLECULE
O=c1[nH][nH]c(=O)c2[nH]ccc12
 16 17 0 0 0
SMALL
GASTEIGER
Energy = 0

@<TRIPOS>ATOM
      1 O          -0.4106   -1.6409    0.0000 O.2     1  LIG1       -0.2642
      2 C          -0.4106   -0.8159    0.0000 C.ar    1  LIG1        0.2873
      3 N          -1.1251   -0.4034    0.0000 N.ar    1  LIG1       -0.2616
      4 N          -1.1251    0.4216    0.0000 N.ar    1  LIG1       -0.2627
      5 C          -0.4106    0.8341    0.0000 C.ar    1  LIG1        0.2725
      6 O          -0.4106    1.6591    0.0000 O.2     1  LIG1       -0.2658
      7 C           0.3039    0.4216    0.0000 C.ar    1  LIG1        0.0706
      8 C           0.3039   -0.4034    0.0000 C.ar    1  LIG1        0.1182
      9 N           1.0885   -0.6583    0.0000 N.ar    1  LIG1       -0.3563
     10 C           1.5734    0.0091    0.0000 C.ar    1  LIG1        0.0031
     11 C           1.0885    0.6766    0.0000 C.ar    1  LIG1       -0.0312
     12 H          -2.0626   -0.9447    0.0000 H       1  LIG1        0.1901
     13 H          -2.0626    0.9629    0.0000 H       1  LIG1        0.1900
     14 H           1.4230   -1.6878    0.0000 H       1  LIG1        0.1655
     15 H           2.6749    0.0091    0.0000 H       1  LIG1        0.0807
     16 H           1.4289    1.7242    0.0000 H       1  LIG1        0.0640
@<TRIPOS>BOND
     1     1     2    2
     2     2     3   ar
     3     3     4   ar
     4     4     5   ar
     5     5     6    2
     6     5     7   ar
     7     7     8   ar
     8     2     8   ar
     9     8     9   ar
    10     9    10   ar
    11    10    11   ar
    12     7    11   ar
    13     3    12    1
    14     4    13    1
    15     9    14    1
    16    10    15    1
    17    11    16    1
