@<TRIPOS>MOLECULE
c1cc2[nH]ccn2c1
 14 15 0 0 0
SMALL
GASTEIGER
Energy = 0

@<TRIPOS>ATOM
      1 N           0.7690   -0.6624    0.0000 N.ar    1  LIG1       -0.3460
      2 C           1.2539    0.0051    0.0000 C.ar    1  LIG1        0.0199
      3 C           0.7690    0.6725    0.0000 C.ar    1  LIG1        0.0270
      4 N          -0.0156    0.4176    0.0000 N.ar    1  LIG1       -0.3081
      5 C          -0.8003    0.6725    0.0000 C.ar    1  LIG1        0.0112
      6 C          -1.2852    0.0051    0.0000 C.ar    1  LIG1       -0.0418
      7 C          -0.8003   -0.6624    0.0000 C.ar    1  LIG1       -0.0193
      8 C          -0.0156   -0.4074    0.0000 C.ar    1  LIG1        0.1153
      9 H           1.1035   -1.6919    0.0000 H       1  LIG1        0.1668
     10 H           2.3554    0.0051    0.0000 H       1  LIG1        0.0822
     11 H           1.1094    1.7201    0.0000 H       1  LIG1        0.0828
     12 H          -1.1407    1.7201    0.0000 H       1  LIG1        0.0813
     13 H          -2.3867    0.0051    0.0000 H       1  LIG1        0.0633
     14 H          -1.1407   -1.7100    0.0000 H       1  LIG1        0.0654
@<TRIPOS>BOND
     1     1     2   ar
     2     2     3   ar
     3     3     4   ar
     4     4     5   ar
     5     5     6   ar
     6     6     7   ar
     7     7     8   ar
     8     1     8   ar
     9     4     8   ar
    10     1     9    1
    11     2    10    1
    12     3    11    1
    13     5    12    1
    14     6    13    1
    15     7    14    1
