@<TRIPOS>MOLECULE
Cn1cc2cn[nH]c2cc1=O
 18 19 0 0 0
SMALL
GASTEIGER
Energy = 0

@<TRIPOS>ATOM
      1 C           1.6073    0.8517    0.0000 C.3     1  LIG1        0.0147
      2 N           0.8928    0.4392    0.0000 N.ar    1  LIG1       -0.3175
      3 C           0.1783    0.8517    0.0000 C.ar    1  LIG1        0.0183
      4 C          -0.5361    0.4392    0.0000 C.ar    1  LIG1        0.0358
      5 C          -1.3208    0.6942    0.0000 C.ar    1  LIG1        0.0583
      6 N          -1.8057    0.0267    0.0000 N.ar    1  LIG1       -0.1811
      7 N          -1.3208   -0.6407    0.0000 N.ar    1  LIG1       -0.2767
      8 C          -0.5361   -0.3858    0.0000 C.ar    1  LIG1        0.0722
      9 C           0.1783   -0.7983    0.0000 C.ar    1  LIG1        0.0284
     10 C           0.8928   -0.3858    0.0000 C.ar    1  LIG1        0.2531
     11 O           1.6073   -0.7983    0.0000 O.2     1  LIG1       -0.2676
     12 H           1.3996    1.9726    0.0000 H       1  LIG1        0.0457
     13 H           2.2283    0.5654   -0.9121 H       1  LIG1        0.0457
     14 H           2.1970    0.5799    0.9370 H       1  LIG1        0.0457
     15 H           0.1783    1.9532    0.0000 H       1  LIG1        0.0817
     16 H          -1.6612    1.7418    0.0000 H       1  LIG1        0.0854
     17 H          -1.6553   -1.6702    0.0000 H       1  LIG1        0.1889
     18 H           0.1783   -1.8998    0.0000 H       1  LIG1        0.0693
@<TRIPOS>BOND
     1     1     2    1
     2     2     3   ar
     3     3     4   ar
     4     4     5   ar
     5     5     6   ar
     6     6     7   ar
     7     7     8   ar
     8     4     8   ar
     9     8     9   ar
    10     9    10   ar
    11     2    10   ar
    12    10    11    2
    13     1    12    1
    14     1    13    1
    15     1    14    1
    16     3    15    1
    17     5    16    1
    18     7    17    1
    19     9    18    1
