@<TRIPOS>MOLECULE
O=c1[nH]ccc2ncsc12
 14 15 0 0 0
SMALL
GASTEIGER
Energy = 0

@<TRIPOS>ATOM
      1 O          -0.6174   -1.3849    0.0000 O.2     1  LIG1       -0.2666
      2 C          -0.6174   -0.5599    0.0000 C.ar    1  LIG1        0.2646
      3 N          -1.3319   -0.1474    0.0000 N.ar    1  LIG1       -0.3281
      4 C          -1.3319    0.6776    0.0000 C.ar    1  LIG1        0.0070
      5 C          -0.6174    1.0901    0.0000 C.ar    1  LIG1       -0.0190
      6 C           0.0970    0.6776    0.0000 C.ar    1  LIG1        0.0848
      7 C           0.0970   -0.1474    0.0000 C.ar    1  LIG1        0.1032
      8 S           0.8816   -0.4023    0.0000 S.2     1  LIG1       -0.0701
      9 C           1.3666    0.2651    0.0000 C.ar    1  LIG1        0.0661
     10 N           0.8816    0.9326    0.0000 N.ar    1  LIG1       -0.2472
     11 H          -2.2694   -0.6887    0.0000 H       1  LIG1        0.1683
     12 H          -2.2858    1.2284    0.0000 H       1  LIG1        0.0808
     13 H          -0.6174    2.1916    0.0000 H       1  LIG1        0.0654
     14 H           2.4681    0.2651    0.0000 H       1  LIG1        0.0907
@<TRIPOS>BOND
     1     1     2    2
     2     2     3   ar
     3     3     4   ar
     4     4     5   ar
     5     5     6   ar
     6     6     7   ar
     7     2     7   ar
     8     7     8   ar
     9     8     9   ar
    10     9    10   ar
    11     6    10   ar
    12     3    11    1
    13     4    12    1
    14     5    13    1
    15     9    14    1
