@<TRIPOS>MOLECULE
Cn1ncc2cc[nH]c(=O)c12
 18 19 0 0 0
SMALL
GASTEIGER
Energy = 0

@<TRIPOS>ATOM
      1 C           1.1458   -1.1284    0.0000 C.3     1  LIG1        0.0311
      2 N           0.8908   -0.3437    0.0000 N.ar    1  LIG1       -0.2615
      3 N           1.3757    0.3237    0.0000 N.ar    1  LIG1       -0.1786
      4 C           0.8908    0.9911    0.0000 C.ar    1  LIG1        0.0573
      5 C           0.1062    0.7362    0.0000 C.ar    1  LIG1        0.0264
      6 C           0.1062   -0.0888    0.0000 C.ar    1  LIG1        0.1327
      7 C          -0.6083   -0.5013    0.0000 C.ar    1  LIG1        0.2745
      8 O          -0.6083   -1.3263    0.0000 O.2     1  LIG1       -0.2656
      9 N          -1.3228   -0.0888    0.0000 N.ar    1  LIG1       -0.3273
     10 C          -1.3228    0.7362    0.0000 C.ar    1  LIG1        0.0057
     11 C          -0.6083    1.1487    0.0000 C.ar    1  LIG1       -0.0348
     12 H           2.2854   -1.1582    0.0000 H       1  LIG1        0.0473
     13 H           0.7367   -1.6763   -0.9121 H       1  LIG1        0.0473
     14 H           0.7573   -1.6487    0.9370 H       1  LIG1        0.0473
     15 H           1.2312    2.0387    0.0000 H       1  LIG1        0.0854
     16 H          -2.2603   -0.6301    0.0000 H       1  LIG1        0.1684
     17 H          -2.2767    1.2870    0.0000 H       1  LIG1        0.0808
     18 H          -0.6083    2.2502    0.0000 H       1  LIG1        0.0639
@<TRIPOS>BOND
     1     1     2    1
     2     2     3   ar
     3     3     4   ar
     4     4     5   ar
     5     5     6   ar
     6     2     6   ar
     7     6     7   ar
     8     7     8    2
     9     7     9   ar
    10     9    10   ar
    11    10    11   ar
    12     5    11   ar
    13     1    12    1
    14     1    13    1
    15     1    14    1
    16     4    15    1
    17     9    16    1
    18    10    17    1
    19    11    18    1
