@<TRIPOS>MOLECULE
Cn1cc2cnncc2c1
 17 18 0 0 0
SMALL
GASTEIGER
Energy = 0

@<TRIPOS>ATOM
      1 C           2.0581    0.0000    0.0000 C.3     1  LIG1        0.0114
      2 N           1.2331    0.0000    0.0000 N.ar    1  LIG1       -0.3550
      3 C           0.7482    0.6674    0.0000 C.ar    1  LIG1        0.0136
      4 C          -0.0364    0.4125    0.0000 C.ar    1  LIG1        0.0209
      5 C          -0.7509    0.8250    0.0000 C.ar    1  LIG1        0.0591
      6 N          -1.4654    0.4125    0.0000 N.ar    1  LIG1       -0.1570
      7 N          -1.4654   -0.4125    0.0000 N.ar    1  LIG1       -0.1570
      8 C          -0.7509   -0.8250    0.0000 C.ar    1  LIG1        0.0591
      9 C          -0.0364   -0.4125    0.0000 C.ar    1  LIG1        0.0209
     10 C           0.7482   -0.6674    0.0000 C.ar    1  LIG1        0.0136
     11 H           2.4386    1.0746    0.0000 H       1  LIG1        0.0455
     12 H           2.4528   -0.5585   -0.9121 H       1  LIG1        0.0455
     13 H           2.4328   -0.5302    0.9370 H       1  LIG1        0.0455
     14 H           1.0886    1.7150    0.0000 H       1  LIG1        0.0815
     15 H          -0.7509    1.9265    0.0000 H       1  LIG1        0.0855
     16 H          -0.7509   -1.9265    0.0000 H       1  LIG1        0.0855
     17 H           1.0886   -1.7150    0.0000 H       1  LIG1        0.0815
@<TRIPOS>BOND
     1     1     2    1
     2     2     3   ar
     3     3     4   ar
     4     4     5   ar
     5     5     6   ar
     6     6     7   ar
     7     7     8   ar
     8     8     9   ar
     9     4     9   ar
    10     9    10   ar
    11     2    10   ar
    12     1    11    1
    13     1    12    1
    14     1    13    1
    15     3    14    1
    16     5    15    1
    17     8    16    1
    18    10    17    1
