@<TRIPOS>MOLECULE
Cn1ccc2ccccc12
 19 20 0 0 0
SMALL
GASTEIGER
Energy = 0

@<TRIPOS>ATOM
      1 C           1.0669   -1.2983    0.0000 C.3     1  LIG1        0.0119
      2 N           0.8120   -0.5137    0.0000 N.ar    1  LIG1       -0.3497
      3 C           1.2969    0.1537    0.0000 C.ar    1  LIG1        0.0054
      4 C           0.8120    0.8212    0.0000 C.ar    1  LIG1       -0.0365
      5 C           0.0274    0.5662    0.0000 C.ar    1  LIG1       -0.0002
      6 C          -0.6871    0.9787    0.0000 C.ar    1  LIG1       -0.0526
      7 C          -1.4016    0.5662    0.0000 C.ar    1  LIG1       -0.0611
      8 C          -1.4016   -0.2588    0.0000 C.ar    1  LIG1       -0.0598
      9 C          -0.6871   -0.6713    0.0000 C.ar    1  LIG1       -0.0376
     10 C           0.0274   -0.2588    0.0000 C.ar    1  LIG1        0.0488
     11 H           2.2065   -1.3282    0.0000 H       1  LIG1        0.0456
     12 H           0.6577   -1.8462   -0.9121 H       1  LIG1        0.0456
     13 H           0.6784   -1.8185    0.9370 H       1  LIG1        0.0456
     14 H           2.3984    0.1537    0.0000 H       1  LIG1        0.0809
     15 H           1.1524    1.8688    0.0000 H       1  LIG1        0.0639
     16 H          -0.6871    2.0802    0.0000 H       1  LIG1        0.0624
     17 H          -2.3555    1.1170    0.0000 H       1  LIG1        0.0618
     18 H          -2.3555   -0.8096    0.0000 H       1  LIG1        0.0618
     19 H          -0.6871   -1.7728    0.0000 H       1  LIG1        0.0638
@<TRIPOS>BOND
     1     1     2    1
     2     2     3   ar
     3     3     4   ar
     4     4     5   ar
     5     5     6   ar
     6     6     7   ar
     7     7     8   ar
     8     8     9   ar
     9     9    10   ar
    10     2    10   ar
    11     5    10   ar
    12     1    11    1
    13     1    12    1
    14     1    13    1
    15     3    14    1
    16     4    15    1
    17     6    16    1
    18     7    17    1
    19     8    18    1
    20     9    19    1
