@<TRIPOS>MOLECULE
O=c1nc[nH]c2cnsc12
 13 14 0 0 0
SMALL
GASTEIGER
Energy = 0

@<TRIPOS>ATOM
      1 O          -0.6157   -1.3905    0.0000 O.2     1  LIG1       -0.2645
      2 C          -0.6157   -0.5655    0.0000 C.ar    1  LIG1        0.2888
      3 N          -1.3302   -0.1530    0.0000 N.ar    1  LIG1       -0.1985
      4 C          -1.3302    0.6720    0.0000 C.ar    1  LIG1        0.0977
      5 N          -0.6157    1.0845    0.0000 N.ar    1  LIG1       -0.3437
      6 C           0.0988    0.6720    0.0000 C.ar    1  LIG1        0.0799
      7 C           0.0988   -0.1530    0.0000 C.ar    1  LIG1        0.1215
      8 S           0.8834   -0.4079    0.0000 S.2     1  LIG1        0.0186
      9 N           1.3683    0.2595    0.0000 N.ar    1  LIG1       -0.2159
     10 C           0.8834    0.9269    0.0000 C.ar    1  LIG1        0.0608
     11 H          -2.2841    1.2228    0.0000 H       1  LIG1        0.1028
     12 H          -0.6157    2.1670    0.0000 H       1  LIG1        0.1668
     13 H           1.2238    1.9745    0.0000 H       1  LIG1        0.0858
@<TRIPOS>BOND
     1     1     2    2
     2     2     3   ar
     3     3     4   ar
     4     4     5   ar
     5     5     6   ar
     6     6     7   ar
     7     2     7   ar
     8     7     8   ar
     9     8     9   ar
    10     9    10   ar
    11     6    10   ar
    12     4    11    1
    13     5    12    1
    14    10    13    1
