@<TRIPOS>MOLECULE
Cn1ncncc1=O
 13 13 0 0 0
SMALL
GASTEIGER
Energy = 0

@<TRIPOS>ATOM
      1 C           0.2021   -1.3309    0.0000 C.3     1  LIG1        0.0340
      2 N           0.2021   -0.5059    0.0000 N.ar    1  LIG1       -0.2300
      3 N           0.9166   -0.0934    0.0000 N.ar    1  LIG1       -0.1570
      4 C           0.9166    0.7316    0.0000 C.ar    1  LIG1        0.1365
      5 N           0.2021    1.1441    0.0000 N.ar    1  LIG1       -0.2366
      6 C          -0.5124    0.7316    0.0000 C.ar    1  LIG1        0.0952
      7 C          -0.5124   -0.0934    0.0000 C.ar    1  LIG1        0.2852
      8 O          -1.2268   -0.5059    0.0000 O.2     1  LIG1       -0.2646
      9 H           1.2767   -1.7114    0.0000 H       1  LIG1        0.0474
     10 H          -0.3564   -1.7256   -0.9121 H       1  LIG1        0.0474
     11 H          -0.3281   -1.7056    0.9370 H       1  LIG1        0.0474
     12 H           1.8705    1.2824    0.0000 H       1  LIG1        0.1065
     13 H          -1.4663    1.2824    0.0000 H       1  LIG1        0.0886
@<TRIPOS>BOND
     1     1     2    1
     2     2     3   ar
     3     3     4   ar
     4     4     5   ar
     5     5     6   ar
     6     6     7   ar
     7     2     7   ar
     8     7     8    2
     9     1     9    1
    10     1    10    1
    11     1    11    1
    12     4    12    1
    13     6    13    1
