@<TRIPOS>MOLECULE
c1nnn2cn[nH]c12
 11 12 0 0 0
SMALL
GASTEIGER
Energy = 0

@<TRIPOS>ATOM
      1 N           0.7846   -0.6752    0.0000 N.ar    1  LIG1       -0.2579
      2 N           1.2695   -0.0078    0.0000 N.ar    1  LIG1       -0.1605
      3 C           0.7846    0.6597    0.0000 C.ar    1  LIG1        0.1414
      4 N           0.0000    0.4047    0.0000 N.ar    1  LIG1       -0.1827
      5 N          -0.7846    0.6597    0.0000 N.ar    1  LIG1       -0.0579
      6 N          -1.2695   -0.0078    0.0000 N.ar    1  LIG1       -0.1353
      7 C          -0.7846   -0.6752    0.0000 C.ar    1  LIG1        0.0952
      8 C           0.0000   -0.4203    0.0000 C.ar    1  LIG1        0.1718
      9 H           1.1191   -1.7047    0.0000 H       1  LIG1        0.1906
     10 H           1.1250    1.7073    0.0000 H       1  LIG1        0.1067
     11 H          -1.1250   -1.7228    0.0000 H       1  LIG1        0.0886
@<TRIPOS>BOND
     1     1     2   ar
     2     2     3   ar
     3     3     4   ar
     4     4     5   ar
     5     5     6   ar
     6     6     7   ar
     7     7     8   ar
     8     1     8   ar
     9     4     8   ar
    10     1     9    1
    11     3    10    1
    12     7    11    1
