@<TRIPOS>MOLECULE
O=c1[nH]ccc2ncoc12
 14 15 0 0 0
SMALL
GASTEIGER
Energy = 0

@<TRIPOS>ATOM
      1 O          -0.5102   -1.4338    0.0000 O.2     1  LIG1       -0.2638
      2 C          -0.5102   -0.6088    0.0000 C.ar    1  LIG1        0.2934
      3 N          -1.2247   -0.1963    0.0000 N.ar    1  LIG1       -0.3260
      4 C          -1.2247    0.6287    0.0000 C.ar    1  LIG1        0.0072
      5 C          -0.5102    1.0412    0.0000 C.ar    1  LIG1       -0.0164
      6 C           0.2043    0.6287    0.0000 C.ar    1  LIG1        0.1160
      7 C           0.2043   -0.1963    0.0000 C.ar    1  LIG1        0.2189
      8 O           0.9889   -0.4513    0.0000 O.2     1  LIG1       -0.4370
      9 C           1.4738    0.2162    0.0000 C.ar    1  LIG1        0.1834
     10 N           0.9889    0.8836    0.0000 N.ar    1  LIG1       -0.2159
     11 H          -2.1622   -0.7376    0.0000 H       1  LIG1        0.1684
     12 H          -2.1786    1.1795    0.0000 H       1  LIG1        0.0808
     13 H          -0.5102    2.1427    0.0000 H       1  LIG1        0.0654
     14 H           2.5753    0.2162    0.0000 H       1  LIG1        0.1255
@<TRIPOS>BOND
     1     1     2    2
     2     2     3   ar
     3     3     4   ar
     4     4     5   ar
     5     5     6   ar
     6     6     7   ar
     7     2     7   ar
     8     7     8   ar
     9     8     9   ar
    10     9    10   ar
    11     6    10   ar
    12     3    11    1
    13     4    12    1
    14     5    13    1
    15     9    14    1
