@<TRIPOS>MOLECULE
O=c1cc2occc2n[nH]1
 14 15 0 0 0
SMALL
GASTEIGER
Energy = 0

@<TRIPOS>ATOM
      1 O           1.7434   -0.7236    0.0000 O.2     1  LIG1       -0.2663
      2 C           1.0289   -0.3111    0.0000 C.ar    1  LIG1        0.2682
      3 N           1.0289    0.5139    0.0000 N.ar    1  LIG1       -0.2425
      4 N           0.3144    0.9264    0.0000 N.ar    1  LIG1       -0.1677
      5 C          -0.4000    0.5139    0.0000 C.ar    1  LIG1        0.1292
      6 C          -1.1846    0.7688    0.0000 C.ar    1  LIG1        0.0039
      7 C          -1.6696    0.1014    0.0000 C.ar    1  LIG1        0.0947
      8 O          -1.1846   -0.5660    0.0000 O.2     1  LIG1       -0.4611
      9 C          -0.4000   -0.3111    0.0000 C.ar    1  LIG1        0.1598
     10 C           0.3144   -0.7236    0.0000 C.ar    1  LIG1        0.0486
     11 H           1.9664    1.0552    0.0000 H       1  LIG1        0.1921
     12 H          -1.5249    1.8164    0.0000 H       1  LIG1        0.0671
     13 H          -2.7711    0.1014    0.0000 H       1  LIG1        0.1030
     14 H           0.3144   -1.8251    0.0000 H       1  LIG1        0.0710
@<TRIPOS>BOND
     1     1     2    2
     2     2     3   ar
     3     3     4   ar
     4     4     5   ar
     5     5     6   ar
     6     6     7   ar
     7     7     8   ar
     8     8     9   ar
     9     5     9   ar
    10     9    10   ar
    11     2    10   ar
    12     3    11    1
    13     6    12    1
    14     7    13    1
    15    10    14    1
