@<TRIPOS>MOLECULE
c1cn2[nH]ccc2n1
 13 14 0 0 0
SMALL
GASTEIGER
Energy = 0

@<TRIPOS>ATOM
      1 N           0.7846   -0.6594    0.0000 N.ar    1  LIG1       -0.2990
      2 C           1.2695    0.0081    0.0000 C.ar    1  LIG1        0.0229
      3 C           0.7846    0.6755    0.0000 C.ar    1  LIG1       -0.0001
      4 C           0.0000    0.4206    0.0000 C.ar    1  LIG1        0.1534
      5 N          -0.7846    0.6755    0.0000 N.ar    1  LIG1       -0.2347
      6 C          -1.2695    0.0081    0.0000 C.ar    1  LIG1        0.0480
      7 C          -0.7846   -0.6594    0.0000 C.ar    1  LIG1        0.0474
      8 N           0.0000   -0.4044    0.0000 N.ar    1  LIG1       -0.2431
      9 H           1.1191   -1.6889    0.0000 H       1  LIG1        0.1867
     10 H           2.3710    0.0081    0.0000 H       1  LIG1        0.0824
     11 H           1.1250    1.7231    0.0000 H       1  LIG1        0.0670
     12 H          -2.3710    0.0081    0.0000 H       1  LIG1        0.0846
     13 H          -1.1250   -1.7070    0.0000 H       1  LIG1        0.0845
@<TRIPOS>BOND
     1     1     2   ar
     2     2     3   ar
     3     3     4   ar
     4     4     5   ar
     5     5     6   ar
     6     6     7   ar
     7     7     8   ar
     8     1     8   ar
     9     4     8   ar
    10     1     9    1
    11     2    10    1
    12     3    11    1
    13     6    12    1
    14     7    13    1
