@<TRIPOS>MOLECULE
Cn1cnc(=O)c2csnc12
 16 17 0 0 0
SMALL
GASTEIGER
Energy = 0

@<TRIPOS>ATOM
      1 C           0.6241   -1.6773    0.0000 C.3     1  LIG1        0.0146
      2 N           0.6241   -0.8523    0.0000 N.ar    1  LIG1       -0.3186
      3 C           1.3386   -0.4398    0.0000 C.ar    1  LIG1        0.1011
      4 N           1.3386    0.3852    0.0000 N.ar    1  LIG1       -0.1987
      5 C           0.6241    0.7977    0.0000 C.ar    1  LIG1        0.2828
      6 O           0.6241    1.6227    0.0000 O.2     1  LIG1       -0.2651
      7 C          -0.0904    0.3852    0.0000 C.ar    1  LIG1        0.0921
      8 C          -0.8750    0.6401    0.0000 C.ar    1  LIG1        0.0103
      9 S          -1.3599   -0.0273    0.0000 S.2     1  LIG1        0.0064
     10 N          -0.8750   -0.6947    0.0000 N.ar    1  LIG1       -0.1921
     11 C          -0.0904   -0.4398    0.0000 C.ar    1  LIG1        0.1556
     12 H           1.6987   -2.0578    0.0000 H       1  LIG1        0.0457
     13 H           0.0656   -2.0720   -0.9121 H       1  LIG1        0.0457
     14 H           0.0939   -2.0520    0.9370 H       1  LIG1        0.0457
     15 H           2.2925   -0.9906    0.0000 H       1  LIG1        0.1030
     16 H          -1.2154    1.6877    0.0000 H       1  LIG1        0.0717
@<TRIPOS>BOND
     1     1     2    1
     2     2     3   ar
     3     3     4   ar
     4     4     5   ar
     5     5     6    2
     6     5     7   ar
     7     7     8   ar
     8     8     9   ar
     9     9    10   ar
    10    10    11   ar
    11     2    11   ar
    12     7    11   ar
    13     1    12    1
    14     1    13    1
    15     1    14    1
    16     3    15    1
    17     8    16    1
