@<TRIPOS>MOLECULE
Cn1c(=O)cc2ncon2c1=O
 17 18 0 0 0
SMALL
GASTEIGER
Energy = 0

@<TRIPOS>ATOM
      1 C           1.6065   -0.6641    0.0000 C.3     1  LIG1        0.0196
      2 N           0.8921   -0.2516    0.0000 N.ar    1  LIG1       -0.2615
      3 C           0.8921    0.5734    0.0000 C.ar    1  LIG1        0.2585
      4 O           1.6065    0.9859    0.0000 O.2     1  LIG1       -0.2674
      5 C           0.1776    0.9859    0.0000 C.ar    1  LIG1        0.0488
      6 C          -0.5369    0.5734    0.0000 C.ar    1  LIG1        0.1830
      7 N          -1.3215    0.8284    0.0000 N.ar    1  LIG1       -0.1963
      8 C          -1.8064    0.1609    0.0000 C.ar    1  LIG1        0.2128
      9 O          -1.3215   -0.5065    0.0000 O.2     1  LIG1       -0.3551
     10 N          -0.5369   -0.2516    0.0000 N.ar    1  LIG1       -0.1026
     11 C           0.1776   -0.6641    0.0000 C.ar    1  LIG1        0.3666
     12 O           0.1776   -1.4891    0.0000 O.2     1  LIG1       -0.2431
     13 H           2.4734    0.0762    0.0000 H       1  LIG1        0.0458
     14 H           1.6690   -1.3451   -0.9121 H       1  LIG1        0.0458
     15 H           1.6659   -1.3107    0.9370 H       1  LIG1        0.0458
     16 H           0.1776    2.0874    0.0000 H       1  LIG1        0.0710
     17 H          -2.9079    0.1609    0.0000 H       1  LIG1        0.1282
@<TRIPOS>BOND
     1     1     2    1
     2     2     3   ar
     3     3     4    2
     4     3     5   ar
     5     5     6   ar
     6     6     7   ar
     7     7     8   ar
     8     8     9   ar
     9     9    10   ar
    10     6    10   ar
    11    10    11   ar
    12     2    11   ar
    13    11    12    2
    14     1    13    1
    15     1    14    1
    16     1    15    1
    17     5    16    1
    18     8    17    1
