@<TRIPOS>MOLECULE
O=c1ccc2c(=O)cc[nH]c2[nH]1
 18 19 0 0 0
SMALL
GASTEIGER
Energy = 0

@<TRIPOS>ATOM
      1 O           1.9970    0.8885    0.0000 O.2     1  LIG1       -0.2679
      2 C           1.2825    0.4760    0.0000 C.ar    1  LIG1        0.2502
      3 N           0.5680    0.8885    0.0000 N.ar    1  LIG1       -0.3084
      4 C          -0.1465    0.4760    0.0000 C.ar    1  LIG1        0.1222
      5 C          -0.1465   -0.3490    0.0000 C.ar    1  LIG1        0.0623
      6 C           0.5680   -0.7615    0.0000 C.ar    1  LIG1       -0.0424
      7 C           1.2825   -0.3490    0.0000 C.ar    1  LIG1        0.0036
      8 C          -0.8609   -0.7615    0.0000 C.ar    1  LIG1        0.1909
      9 O          -0.8609   -1.5865    0.0000 O.2     1  LIG1       -0.2871
     10 C          -1.5754   -0.3490    0.0000 C.ar    1  LIG1        0.0018
     11 C          -1.5754    0.4760    0.0000 C.ar    1  LIG1        0.0071
     12 N          -0.8609    0.8885    0.0000 N.ar    1  LIG1       -0.3470
     13 H           0.5680    1.9710    0.0000 H       1  LIG1        0.1703
     14 H           0.5680   -1.8630    0.0000 H       1  LIG1        0.0627
     15 H           2.2364   -0.8998    0.0000 H       1  LIG1        0.0672
     16 H          -2.5293   -0.8998    0.0000 H       1  LIG1        0.0670
     17 H          -2.5293    1.0268    0.0000 H       1  LIG1        0.0808
     18 H          -0.8609    1.9710    0.0000 H       1  LIG1        0.1667
@<TRIPOS>BOND
     1     1     2    2
     2     2     3   ar
     3     3     4   ar
     4     4     5   ar
     5     5     6   ar
     6     6     7   ar
     7     2     7   ar
     8     5     8   ar
     9     8     9    2
    10     8    10   ar
    11    10    11   ar
    12    11    12   ar
    13     4    12   ar
    14     3    13    1
    15     6    14    1
    16     7    15    1
    17    10    16    1
    18    11    17    1
    19    12    18    1
