@<TRIPOS>MOLECULE
O=c1[nH]ccc2cc[nH]c12
 16 17 0 0 0
SMALL
GASTEIGER
Energy = 0

@<TRIPOS>ATOM
      1 O          -0.4794   -1.4271    0.0000 O.2     1  LIG1       -0.2656
      2 C          -0.4794   -0.6021    0.0000 C.ar    1  LIG1        0.2727
      3 N          -1.1939   -0.1896    0.0000 N.ar    1  LIG1       -0.3274
      4 C          -1.1939    0.6354    0.0000 C.ar    1  LIG1        0.0056
      5 C          -0.4794    1.0479    0.0000 C.ar    1  LIG1       -0.0364
      6 C           0.2351    0.6354    0.0000 C.ar    1  LIG1        0.0063
      7 C           0.2351   -0.1896    0.0000 C.ar    1  LIG1        0.1117
      8 N           1.0197   -0.4445    0.0000 N.ar    1  LIG1       -0.3565
      9 C           1.5046    0.2229    0.0000 C.ar    1  LIG1        0.0029
     10 C           1.0197    0.8904    0.0000 C.ar    1  LIG1       -0.0364
     11 H          -2.1314   -0.7309    0.0000 H       1  LIG1        0.1684
     12 H          -2.1478    1.1862    0.0000 H       1  LIG1        0.0808
     13 H          -0.4794    2.1494    0.0000 H       1  LIG1        0.0639
     14 H           1.3542   -1.4740    0.0000 H       1  LIG1        0.1655
     15 H           2.6061    0.2229    0.0000 H       1  LIG1        0.0807
     16 H           1.3601    1.9380    0.0000 H       1  LIG1        0.0638
@<TRIPOS>BOND
     1     1     2    2
     2     2     3   ar
     3     3     4   ar
     4     4     5   ar
     5     5     6   ar
     6     6     7   ar
     7     2     7   ar
     8     7     8   ar
     9     8     9   ar
    10     9    10   ar
    11     6    10   ar
    12     3    11    1
    13     4    12    1
    14     5    13    1
    15     8    14    1
    16     9    15    1
    17    10    16    1
