@<TRIPOS>MOLECULE
Cn1cnn2ccc(=O)cc12
 18 19 0 0 0
SMALL
GASTEIGER
Energy = 0

@<TRIPOS>ATOM
      1 C           1.2934   -1.2422    0.0000 C.3     1  LIG1        0.0146
      2 N           1.0384   -0.4576    0.0000 N.ar    1  LIG1       -0.3183
      3 C           1.5234    0.2098    0.0000 C.ar    1  LIG1        0.1182
      4 N           1.0384    0.8773    0.0000 N.ar    1  LIG1       -0.1554
      5 N           0.2538    0.6223    0.0000 N.ar    1  LIG1       -0.2219
      6 C          -0.4606    1.0348    0.0000 C.ar    1  LIG1        0.0350
      7 C          -1.1751    0.6223    0.0000 C.ar    1  LIG1        0.0034
      8 C          -1.1751   -0.2027    0.0000 C.ar    1  LIG1        0.1839
      9 O          -1.8896   -0.6152    0.0000 O.2     1  LIG1       -0.2877
     10 C          -0.4606   -0.6152    0.0000 C.ar    1  LIG1        0.0277
     11 C           0.2538   -0.2027    0.0000 C.ar    1  LIG1        0.1394
     12 H           2.4330   -1.2720    0.0000 H       1  LIG1        0.0457
     13 H           0.8843   -1.7902   -0.9121 H       1  LIG1        0.0457
     14 H           0.9049   -1.7625    0.9370 H       1  LIG1        0.0457
     15 H           2.6249    0.2098    0.0000 H       1  LIG1        0.1047
     16 H          -0.4606    2.1363    0.0000 H       1  LIG1        0.0832
     17 H          -2.1290    1.1731    0.0000 H       1  LIG1        0.0671
     18 H          -0.4606   -1.7167    0.0000 H       1  LIG1        0.0692
@<TRIPOS>BOND
     1     1     2    1
     2     2     3   ar
     3     3     4   ar
     4     4     5   ar
     5     5     6   ar
     6     6     7   ar
     7     7     8   ar
     8     8     9    2
     9     8    10   ar
    10    10    11   ar
    11     2    11   ar
    12     5    11   ar
    13     1    12    1
    14     1    13    1
    15     1    14    1
    16     3    15    1
    17     6    16    1
    18     7    17    1
    19    10    18    1
