@<TRIPOS>MOLECULE
c1cc2ncncn2n1
 13 14 0 0 0
SMALL
GASTEIGER
Energy = 0

@<TRIPOS>ATOM
      1 C           1.4427   -0.0115    0.0000 C.ar    1  LIG1        0.0520
      2 N           0.9578    0.6560    0.0000 N.ar    1  LIG1       -0.1720
      3 N           0.1732    0.4010    0.0000 N.ar    1  LIG1       -0.2036
      4 C          -0.5413    0.8135    0.0000 C.ar    1  LIG1        0.1214
      5 N          -1.2558    0.4010    0.0000 N.ar    1  LIG1       -0.2240
      6 C          -1.2558   -0.4240    0.0000 C.ar    1  LIG1        0.1200
      7 N          -0.5413   -0.8365    0.0000 N.ar    1  LIG1       -0.2165
      8 C           0.1732   -0.4240    0.0000 C.ar    1  LIG1        0.1588
      9 C           0.9578   -0.6789    0.0000 C.ar    1  LIG1        0.0024
     10 H           2.5442   -0.0115    0.0000 H       1  LIG1        0.0848
     11 H          -0.5413    1.9150    0.0000 H       1  LIG1        0.1048
     12 H          -2.2097   -0.9748    0.0000 H       1  LIG1        0.1048
     13 H           1.2982   -1.7265    0.0000 H       1  LIG1        0.0670
@<TRIPOS>BOND
     1     1     2   ar
     2     2     3   ar
     3     3     4   ar
     4     4     5   ar
     5     5     6   ar
     6     6     7   ar
     7     7     8   ar
     8     3     8   ar
     9     8     9   ar
    10     1     9   ar
    11     1    10    1
    12     4    11    1
    13     6    12    1
    14     9    13    1
