@<TRIPOS>MOLECULE
O=c1cnc2ccc[nH]n12
 15 16 0 0 0
SMALL
GASTEIGER
Energy = 0

@<TRIPOS>ATOM
      1 O           1.0443   -1.2647    0.0000 O.2     1  LIG1       -0.2642
      2 C           0.7894   -0.4801    0.0000 C.ar    1  LIG1        0.2897
      3 C           1.2743    0.1873    0.0000 C.ar    1  LIG1        0.0961
      4 N           0.7894    0.8548    0.0000 N.ar    1  LIG1       -0.2307
      5 C           0.0048    0.5998    0.0000 C.ar    1  LIG1        0.1559
      6 C          -0.7097    1.0123    0.0000 C.ar    1  LIG1       -0.0160
      7 C          -1.4242    0.5998    0.0000 C.ar    1  LIG1       -0.0408
      8 C          -1.4242   -0.2252    0.0000 C.ar    1  LIG1        0.0196
      9 N          -0.7097   -0.6377    0.0000 N.ar    1  LIG1       -0.2960
     10 N           0.0048   -0.2252    0.0000 N.ar    1  LIG1       -0.2002
     11 H           2.3758    0.1873    0.0000 H       1  LIG1        0.0886
     12 H          -0.7097    2.1138    0.0000 H       1  LIG1        0.0655
     13 H          -2.3781    1.1506    0.0000 H       1  LIG1        0.0634
     14 H          -2.3781   -0.7760    0.0000 H       1  LIG1        0.0823
     15 H          -0.7097   -1.7202    0.0000 H       1  LIG1        0.1868
@<TRIPOS>BOND
     1     1     2    2
     2     2     3   ar
     3     3     4   ar
     4     4     5   ar
     5     5     6   ar
     6     6     7   ar
     7     7     8   ar
     8     8     9   ar
     9     9    10   ar
    10     2    10   ar
    11     5    10   ar
    12     3    11    1
    13     6    12    1
    14     7    13    1
    15     8    14    1
    16     9    15    1
