@<TRIPOS>MOLECULE
Cn1cnc2cn[nH]c(=O)c12
 17 18 0 0 0
SMALL
GASTEIGER
Energy = 0

@<TRIPOS>ATOM
      1 C           1.1708   -1.1478    0.0000 C.3     1  LIG1        0.0134
      2 N           0.9159   -0.3632    0.0000 N.ar    1  LIG1       -0.3289
      3 C           1.4008    0.3042    0.0000 C.ar    1  LIG1        0.0970
      4 N           0.9159    0.9717    0.0000 N.ar    1  LIG1       -0.2340
      5 C           0.1312    0.7167    0.0000 C.ar    1  LIG1        0.1140
      6 C           0.1312   -0.1083    0.0000 C.ar    1  LIG1        0.1364
      7 C          -0.5832   -0.5208    0.0000 C.ar    1  LIG1        0.2905
      8 O          -0.5832   -1.3458    0.0000 O.2     1  LIG1       -0.2641
      9 N          -1.2977   -0.1083    0.0000 N.ar    1  LIG1       -0.2414
     10 N          -1.2977    0.7167    0.0000 N.ar    1  LIG1       -0.1771
     11 C          -0.5832    1.1292    0.0000 C.ar    1  LIG1        0.0754
     12 H           2.3104   -1.1777    0.0000 H       1  LIG1        0.0456
     13 H           0.7616   -1.6957   -0.9121 H       1  LIG1        0.0456
     14 H           0.7823   -1.6680    0.9370 H       1  LIG1        0.0456
     15 H           2.5023    0.3042    0.0000 H       1  LIG1        0.1029
     16 H          -2.2352   -0.6496    0.0000 H       1  LIG1        0.1922
     17 H          -0.5832    2.2307    0.0000 H       1  LIG1        0.0870
@<TRIPOS>BOND
     1     1     2    1
     2     2     3   ar
     3     3     4   ar
     4     4     5   ar
     5     5     6   ar
     6     2     6   ar
     7     6     7   ar
     8     7     8    2
     9     7     9   ar
    10     9    10   ar
    11    10    11   ar
    12     5    11   ar
    13     1    12    1
    14     1    13    1
    15     1    14    1
    16     3    15    1
    17     9    16    1
    18    11    17    1
