@<TRIPOS>MOLECULE
O=c1[nH]nc2ccncn12
 14 15 0 0 0
SMALL
GASTEIGER
Energy = 0

@<TRIPOS>ATOM
      1 O           1.0359   -1.2738    0.0000 O.2     1  LIG1       -0.2446
      2 C           0.7809   -0.4892    0.0000 C.ar    1  LIG1        0.3496
      3 N           1.2658    0.1783    0.0000 N.ar    1  LIG1       -0.2260
      4 N           0.7809    0.8457    0.0000 N.ar    1  LIG1       -0.1514
      5 C          -0.0037    0.5908    0.0000 C.ar    1  LIG1        0.1641
      6 C          -0.7182    1.0033    0.0000 C.ar    1  LIG1        0.0012
      7 C          -1.4326    0.5908    0.0000 C.ar    1  LIG1        0.0328
      8 N          -1.4326   -0.2342    0.0000 N.ar    1  LIG1       -0.2449
      9 C          -0.7182   -0.6467    0.0000 C.ar    1  LIG1        0.1060
     10 N          -0.0037   -0.2342    0.0000 N.ar    1  LIG1       -0.2340
     11 H           2.3483    0.1783    0.0000 H       1  LIG1        0.1937
     12 H          -0.7182    2.1048    0.0000 H       1  LIG1        0.0670
     13 H          -2.3865    1.1415    0.0000 H       1  LIG1        0.0831
     14 H          -0.7182   -1.7482    0.0000 H       1  LIG1        0.1034
@<TRIPOS>BOND
     1     1     2    2
     2     2     3   ar
     3     3     4   ar
     4     4     5   ar
     5     5     6   ar
     6     6     7   ar
     7     7     8   ar
     8     8     9   ar
     9     9    10   ar
    10     2    10   ar
    11     5    10   ar
    12     3    11    1
    13     6    12    1
    14     7    13    1
    15     9    14    1
