@<TRIPOS>MOLECULE
Cn1cnc2[nH]ccc2c1=O
 18 19 0 0 0
SMALL
GASTEIGER
Energy = 0

@<TRIPOS>ATOM
      1 C          -1.7403   -0.5847    0.0000 C.3     1  LIG1        0.0161
      2 N          -1.0258   -0.1722    0.0000 N.ar    1  LIG1       -0.3018
      3 C          -1.0258    0.6528    0.0000 C.ar    1  LIG1        0.1006
      4 N          -0.3114    1.0653    0.0000 N.ar    1  LIG1       -0.2195
      5 C           0.4031    0.6528    0.0000 C.ar    1  LIG1        0.1450
      6 C           0.4031   -0.1722    0.0000 C.ar    1  LIG1        0.0831
      7 C           1.1877   -0.4271    0.0000 C.ar    1  LIG1       -0.0299
      8 C           1.6727    0.2403    0.0000 C.ar    1  LIG1        0.0043
      9 N           1.1877    0.9078    0.0000 N.ar    1  LIG1       -0.3456
     10 C          -0.3114   -0.5847    0.0000 C.ar    1  LIG1        0.2629
     11 O          -0.3114   -1.4097    0.0000 O.2     1  LIG1       -0.2669
     12 H          -2.6071    0.1557    0.0000 H       1  LIG1        0.0457
     13 H          -1.8029   -1.2657    0.9121 H       1  LIG1        0.0457
     14 H          -1.7997   -1.2313   -0.9370 H       1  LIG1        0.0457
     15 H          -1.9797    1.2035    0.0000 H       1  LIG1        0.1030
     16 H           1.5280   -1.4747    0.0000 H       1  LIG1        0.0641
     17 H           2.7742    0.2403    0.0000 H       1  LIG1        0.0807
     18 H           1.5222    1.9373    0.0000 H       1  LIG1        0.1668
@<TRIPOS>BOND
     1     1     2    1
     2     2     3   ar
     3     3     4   ar
     4     4     5   ar
     5     5     6   ar
     6     6     7   ar
     7     7     8   ar
     8     8     9   ar
     9     5     9   ar
    10     6    10   ar
    11     2    10   ar
    12    10    11    2
    13     1    12    1
    14     1    13    1
    15     1    14    1
    16     3    15    1
    17     7    16    1
    18     8    17    1
    19     9    18    1
