@<TRIPOS>MOLECULE
O=c1cc[nH]c2ncnnc12
 15 16 0 0 0
SMALL
GASTEIGER
Energy = 0

@<TRIPOS>ATOM
      1 O           0.6648   -1.4725    0.0000 O.2     1  LIG1       -0.2854
      2 C           0.6648   -0.6475    0.0000 C.ar    1  LIG1        0.2109
      3 C           1.3793   -0.2350    0.0000 C.ar    1  LIG1        0.0034
      4 C           1.3793    0.5900    0.0000 C.ar    1  LIG1        0.0072
      5 N           0.6648    1.0025    0.0000 N.ar    1  LIG1       -0.3443
      6 C          -0.0496    0.5900    0.0000 C.ar    1  LIG1        0.1639
      7 N          -0.7641    1.0025    0.0000 N.ar    1  LIG1       -0.2144
      8 C          -1.4786    0.5900    0.0000 C.ar    1  LIG1        0.1406
      9 N          -1.4786   -0.2350    0.0000 N.ar    1  LIG1       -0.1370
     10 N          -0.7641   -0.6475    0.0000 N.ar    1  LIG1       -0.1408
     11 C          -0.0496   -0.2350    0.0000 C.ar    1  LIG1        0.1747
     12 H           2.3332   -0.7858    0.0000 H       1  LIG1        0.0671
     13 H           2.3332    1.1408    0.0000 H       1  LIG1        0.0808
     14 H           0.6648    2.0850    0.0000 H       1  LIG1        0.1668
     15 H          -2.4325    1.1408    0.0000 H       1  LIG1        0.1066
@<TRIPOS>BOND
     1     1     2    2
     2     2     3   ar
     3     3     4   ar
     4     4     5   ar
     5     5     6   ar
     6     6     7   ar
     7     7     8   ar
     8     8     9   ar
     9     9    10   ar
    10    10    11   ar
    11     2    11   ar
    12     6    11   ar
    13     3    12    1
    14     4    13    1
    15     5    14    1
    16     8    15    1
