@<TRIPOS>MOLECULE
O=c1ccc2nocc2[nH]1
 14 15 0 0 0
SMALL
GASTEIGER
Energy = 0

@<TRIPOS>ATOM
      1 O           1.7915    0.7227    0.0000 O.2     1  LIG1       -0.2679
      2 C           1.0770    0.3102    0.0000 C.ar    1  LIG1        0.2493
      3 N           0.3625    0.7227    0.0000 N.ar    1  LIG1       -0.3183
      4 C          -0.3519    0.3102    0.0000 C.ar    1  LIG1        0.1087
      5 C          -1.1365    0.5651    0.0000 C.ar    1  LIG1        0.1481
      6 O          -1.6215   -0.1023    0.0000 O.2     1  LIG1       -0.3603
      7 N          -1.1365   -0.7698    0.0000 N.ar    1  LIG1       -0.0768
      8 C          -0.3519   -0.5148    0.0000 C.ar    1  LIG1        0.1297
      9 C           0.3625   -0.9273    0.0000 C.ar    1  LIG1       -0.0259
     10 C           1.0770   -0.5148    0.0000 C.ar    1  LIG1        0.0049
     11 H           0.3625    1.8052    0.0000 H       1  LIG1        0.1690
     12 H          -1.4768    1.6127    0.0000 H       1  LIG1        0.1079
     13 H           0.3625   -2.0288    0.0000 H       1  LIG1        0.0642
     14 H           2.0309   -1.0656    0.0000 H       1  LIG1        0.0672
@<TRIPOS>BOND
     1     1     2    2
     2     2     3   ar
     3     3     4   ar
     4     4     5   ar
     5     5     6   ar
     6     6     7   ar
     7     7     8   ar
     8     4     8   ar
     9     8     9   ar
    10     9    10   ar
    11     2    10   ar
    12     3    11    1
    13     5    12    1
    14     9    13    1
    15    10    14    1
