@<TRIPOS>MOLECULE
O=c1ncn2nc[nH]nc12
 13 14 0 0 0
SMALL
GASTEIGER
Energy = 0

@<TRIPOS>ATOM
      1 O           1.0689   -1.2788    0.0000 O.2     1  LIG1       -0.2617
      2 C           0.8139   -0.4942    0.0000 C.ar    1  LIG1        0.3177
      3 N           1.2989    0.1733    0.0000 N.ar    1  LIG1       -0.1943
      4 C           0.8139    0.8407    0.0000 C.ar    1  LIG1        0.1240
      5 N           0.0293    0.5858    0.0000 N.ar    1  LIG1       -0.1958
      6 N          -0.6852    0.9983    0.0000 N.ar    1  LIG1       -0.1526
      7 C          -1.3996    0.5858    0.0000 C.ar    1  LIG1        0.1305
      8 N          -1.3996   -0.2392    0.0000 N.ar    1  LIG1       -0.2632
      9 N          -0.6852   -0.6517    0.0000 N.ar    1  LIG1       -0.1472
     10 C           0.0293   -0.2392    0.0000 C.ar    1  LIG1        0.2418
     11 H           1.1542    1.8883    0.0000 H       1  LIG1        0.1049
     12 H          -2.3535    1.1365    0.0000 H       1  LIG1        0.1059
     13 H          -2.3371   -0.7804    0.0000 H       1  LIG1        0.1900
@<TRIPOS>BOND
     1     1     2    2
     2     2     3   ar
     3     3     4   ar
     4     4     5   ar
     5     5     6   ar
     6     6     7   ar
     7     7     8   ar
     8     8     9   ar
     9     9    10   ar
    10     2    10   ar
    11     5    10   ar
    12     4    11    1
    13     7    12    1
    14     8    13    1
