@<TRIPOS>MOLECULE
c1ncn2ccnnc12
 13 14 0 0 0
SMALL
GASTEIGER
Energy = 0

@<TRIPOS>ATOM
      1 C           1.2641    0.4267    0.0000 C.ar    1  LIG1        0.0665
      2 C           0.5496    0.8392    0.0000 C.ar    1  LIG1        0.0325
      3 N          -0.1649    0.4267    0.0000 N.ar    1  LIG1       -0.2876
      4 C          -0.9495    0.6816    0.0000 C.ar    1  LIG1        0.1016
      5 N          -1.4344    0.0142    0.0000 N.ar    1  LIG1       -0.2414
      6 C          -0.9495   -0.6533    0.0000 C.ar    1  LIG1        0.0738
      7 C          -0.1649   -0.3983    0.0000 C.ar    1  LIG1        0.1791
      8 N           0.5496   -0.8108    0.0000 N.ar    1  LIG1       -0.1295
      9 N           1.2641   -0.3983    0.0000 N.ar    1  LIG1       -0.1542
     10 H           2.2180    0.9775    0.0000 H       1  LIG1        0.0863
     11 H           0.5496    1.9407    0.0000 H       1  LIG1        0.0830
     12 H          -1.2899    1.7292    0.0000 H       1  LIG1        0.1032
     13 H          -1.2899   -1.7009    0.0000 H       1  LIG1        0.0868
@<TRIPOS>BOND
     1     1     2   ar
     2     2     3   ar
     3     3     4   ar
     4     4     5   ar
     5     5     6   ar
     6     6     7   ar
     7     3     7   ar
     8     7     8   ar
     9     8     9   ar
    10     1     9   ar
    11     1    10    1
    12     2    11    1
    13     4    12    1
    14     6    13    1
