@<TRIPOS>MOLECULE
O=c1[nH]ncc2[nH]cnc12
 14 15 0 0 0
SMALL
GASTEIGER
Energy = 0

@<TRIPOS>ATOM
      1 O          -0.4768   -1.4501    0.0000 O.2     1  LIG1       -0.2640
      2 C          -0.4768   -0.6251    0.0000 C.ar    1  LIG1        0.2923
      3 N          -1.1912   -0.2126    0.0000 N.ar    1  LIG1       -0.2414
      4 N          -1.1912    0.6124    0.0000 N.ar    1  LIG1       -0.1772
      5 C          -0.4768    1.0249    0.0000 C.ar    1  LIG1        0.0734
      6 C           0.2377    0.6124    0.0000 C.ar    1  LIG1        0.0914
      7 C           0.2377   -0.2126    0.0000 C.ar    1  LIG1        0.1557
      8 N           1.0223   -0.4676    0.0000 N.ar    1  LIG1       -0.2304
      9 C           1.5072    0.1999    0.0000 C.ar    1  LIG1        0.0947
     10 N           1.0223    0.8673    0.0000 N.ar    1  LIG1       -0.3430
     11 H          -2.1287   -0.7538    0.0000 H       1  LIG1        0.1922
     12 H          -0.4768    2.1264    0.0000 H       1  LIG1        0.0869
     13 H           2.6087    0.1999    0.0000 H       1  LIG1        0.1027
     14 H           1.3568    1.8968    0.0000 H       1  LIG1        0.1668
@<TRIPOS>BOND
     1     1     2    2
     2     2     3   ar
     3     3     4   ar
     4     4     5   ar
     5     5     6   ar
     6     6     7   ar
     7     2     7   ar
     8     7     8   ar
     9     8     9   ar
    10     9    10   ar
    11     6    10   ar
    12     3    11    1
    13     5    12    1
    14     9    13    1
    15    10    14    1
