@<TRIPOS>MOLECULE
Cn1ncc2ocnc2c1=O
 16 17 0 0 0
SMALL
GASTEIGER
Energy = 0

@<TRIPOS>ATOM
      1 C          -1.7630   -0.5856    0.0000 C.3     1  LIG1        0.0340
      2 N          -1.0485   -0.1731    0.0000 N.ar    1  LIG1       -0.2307
      3 N          -1.0485    0.6519    0.0000 N.ar    1  LIG1       -0.1731
      4 C          -0.3340    1.0644    0.0000 C.ar    1  LIG1        0.0926
      5 C           0.3804    0.6519    0.0000 C.ar    1  LIG1        0.1800
      6 C           0.3804   -0.1731    0.0000 C.ar    1  LIG1        0.1763
      7 N           1.1651   -0.4280    0.0000 N.ar    1  LIG1       -0.2105
      8 C           1.6500    0.2394    0.0000 C.ar    1  LIG1        0.1833
      9 O           1.1651    0.9069    0.0000 O.2     1  LIG1       -0.4407
     10 C          -0.3340   -0.5856    0.0000 C.ar    1  LIG1        0.2962
     11 O          -0.3340   -1.4106    0.0000 O.2     1  LIG1       -0.2638
     12 H          -2.6298    0.1548    0.0000 H       1  LIG1        0.0474
     13 H          -1.8256   -1.2666    0.9121 H       1  LIG1        0.0474
     14 H          -1.8224   -1.2322   -0.9370 H       1  LIG1        0.0474
     15 H          -0.3340    2.1659    0.0000 H       1  LIG1        0.0886
     16 H           2.7515    0.2394    0.0000 H       1  LIG1        0.1255
@<TRIPOS>BOND
     1     1     2    1
     2     2     3   ar
     3     3     4   ar
     4     4     5   ar
     5     5     6   ar
     6     6     7   ar
     7     7     8   ar
     8     8     9   ar
     9     5     9   ar
    10     6    10   ar
    11     2    10   ar
    12    10    11    2
    13     1    12    1
    14     1    13    1
    15     1    14    1
    16     4    15    1
    17     8    16    1
