@<TRIPOS>MOLECULE
O=c1ccn2cnccc2n1
 16 17 0 0 0
SMALL
GASTEIGER
Energy = 0

@<TRIPOS>ATOM
      1 O           1.9121   -0.7321    0.0000 O.2     1  LIG1       -0.2658
      2 C           1.1976   -0.3196    0.0000 C.ar    1  LIG1        0.2734
      3 C           1.1976    0.5054    0.0000 C.ar    1  LIG1        0.0213
      4 C           0.4832    0.9179    0.0000 C.ar    1  LIG1        0.0177
      5 N          -0.2313    0.5054    0.0000 N.ar    1  LIG1       -0.2915
      6 C          -0.9458    0.9179    0.0000 C.ar    1  LIG1        0.1014
      7 N          -1.6602    0.5054    0.0000 N.ar    1  LIG1       -0.2450
      8 C          -1.6602   -0.3196    0.0000 C.ar    1  LIG1        0.0327
      9 C          -0.9458   -0.7321    0.0000 C.ar    1  LIG1       -0.0005
     10 C          -0.2313   -0.3196    0.0000 C.ar    1  LIG1        0.1440
     11 N           0.4832   -0.7321    0.0000 N.ar    1  LIG1       -0.1912
     12 H           2.1515    1.0561    0.0000 H       1  LIG1        0.0687
     13 H           0.4832    2.0194    0.0000 H       1  LIG1        0.0815
     14 H          -0.9458    2.0194    0.0000 H       1  LIG1        0.1032
     15 H          -2.6141   -0.8703    0.0000 H       1  LIG1        0.0831
     16 H          -0.9458   -1.8336    0.0000 H       1  LIG1        0.0669
@<TRIPOS>BOND
     1     1     2    2
     2     2     3   ar
     3     3     4   ar
     4     4     5   ar
     5     5     6   ar
     6     6     7   ar
     7     7     8   ar
     8     8     9   ar
     9     9    10   ar
    10     5    10   ar
    11    10    11   ar
    12     2    11   ar
    13     3    12    1
    14     4    13    1
    15     6    14    1
    16     8    15    1
    17     9    16    1
