@<TRIPOS>MOLECULE
O=c1ccc2cnncc2[nH]1
 16 17 0 0 0
SMALL
GASTEIGER
Energy = 0

@<TRIPOS>ATOM
      1 O           1.9322    0.7205    0.0000 O.2     1  LIG1       -0.2679
      2 C           1.2177    0.3080    0.0000 C.ar    1  LIG1        0.2492
      3 N           0.5032    0.7205    0.0000 N.ar    1  LIG1       -0.3208
      4 C          -0.2112    0.3080    0.0000 C.ar    1  LIG1        0.0707
      5 C          -0.9257    0.7205    0.0000 C.ar    1  LIG1        0.0739
      6 N          -1.6402    0.3080    0.0000 N.ar    1  LIG1       -0.1556
      7 N          -1.6402   -0.5170    0.0000 N.ar    1  LIG1       -0.1570
      8 C          -0.9257   -0.9295    0.0000 C.ar    1  LIG1        0.0591
      9 C          -0.2112   -0.5170    0.0000 C.ar    1  LIG1        0.0199
     10 C           0.5032   -0.9295    0.0000 C.ar    1  LIG1       -0.0460
     11 C           1.2177   -0.5170    0.0000 C.ar    1  LIG1        0.0034
     12 H           0.5032    1.8030    0.0000 H       1  LIG1        0.1690
     13 H          -0.9257    1.8220    0.0000 H       1  LIG1        0.0869
     14 H          -0.9257   -2.0310    0.0000 H       1  LIG1        0.0855
     15 H           0.5032   -2.0310    0.0000 H       1  LIG1        0.0626
     16 H           2.1716   -1.0678    0.0000 H       1  LIG1        0.0672
@<TRIPOS>BOND
     1     1     2    2
     2     2     3   ar
     3     3     4   ar
     4     4     5   ar
     5     5     6   ar
     6     6     7   ar
     7     7     8   ar
     8     8     9   ar
     9     4     9   ar
    10     9    10   ar
    11    10    11   ar
    12     2    11   ar
    13     3    12    1
    14     5    13    1
    15     8    14    1
    16    10    15    1
    17    11    16    1
