@<TRIPOS>MOLECULE
O=c1cnc2nccnc2[nH]1
 15 16 0 0 0
SMALL
GASTEIGER
Energy = 0

@<TRIPOS>ATOM
      1 O           1.9054    0.7334    0.0000 O.2     1  LIG1       -0.2662
      2 C           1.1909    0.3209    0.0000 C.ar    1  LIG1        0.2685
      3 N           0.4765    0.7334    0.0000 N.ar    1  LIG1       -0.3032
      4 C          -0.2380    0.3209    0.0000 C.ar    1  LIG1        0.1785
      5 N          -0.9525    0.7334    0.0000 N.ar    1  LIG1       -0.2331
      6 C          -1.6669    0.3209    0.0000 C.ar    1  LIG1        0.0481
      7 C          -1.6669   -0.5041    0.0000 C.ar    1  LIG1        0.0482
      8 N          -0.9525   -0.9166    0.0000 N.ar    1  LIG1       -0.2317
      9 C          -0.2380   -0.5041    0.0000 C.ar    1  LIG1        0.1960
     10 N           0.4765   -0.9166    0.0000 N.ar    1  LIG1       -0.2278
     11 C           1.1909   -0.5041    0.0000 C.ar    1  LIG1        0.0943
     12 H           0.4765    1.8159    0.0000 H       1  LIG1        0.1705
     13 H          -2.6208    0.8716    0.0000 H       1  LIG1        0.0846
     14 H          -2.6208   -1.0548    0.0000 H       1  LIG1        0.0846
     15 H           2.1448   -1.0548    0.0000 H       1  LIG1        0.0886
@<TRIPOS>BOND
     1     1     2    2
     2     2     3   ar
     3     3     4   ar
     4     4     5   ar
     5     5     6   ar
     6     6     7   ar
     7     7     8   ar
     8     8     9   ar
     9     4     9   ar
    10     9    10   ar
    11    10    11   ar
    12     2    11   ar
    13     3    12    1
    14     6    13    1
    15     7    14    1
    16    11    15    1
