@<TRIPOS>MOLECULE
Cn1ccc2occc2c1=O
 18 19 0 0 0
SMALL
GASTEIGER
Energy = 0

@<TRIPOS>ATOM
      1 C          -1.7613   -0.5824    0.0000 C.3     1  LIG1        0.0147
      2 N          -1.0469   -0.1699    0.0000 N.ar    1  LIG1       -0.3176
      3 C          -1.0469    0.6551    0.0000 C.ar    1  LIG1        0.0111
      4 C          -0.3324    1.0676    0.0000 C.ar    1  LIG1       -0.0024
      5 C           0.3821    0.6551    0.0000 C.ar    1  LIG1        0.1414
      6 C           0.3821   -0.1699    0.0000 C.ar    1  LIG1        0.0845
      7 C           1.1667   -0.4249    0.0000 C.ar    1  LIG1       -0.0109
      8 C           1.6516    0.2426    0.0000 C.ar    1  LIG1        0.0933
      9 O           1.1667    0.9100    0.0000 O.2     1  LIG1       -0.4627
     10 C          -0.3324   -0.5824    0.0000 C.ar    1  LIG1        0.2619
     11 O          -0.3324   -1.4074    0.0000 O.2     1  LIG1       -0.2669
     12 H          -2.6282    0.1579    0.0000 H       1  LIG1        0.0457
     13 H          -1.8238   -1.2634    0.9121 H       1  LIG1        0.0457
     14 H          -1.8207   -1.2290   -0.9370 H       1  LIG1        0.0457
     15 H          -2.0008    1.2059    0.0000 H       1  LIG1        0.0811
     16 H          -0.3324    2.1691    0.0000 H       1  LIG1        0.0669
     17 H           1.5071   -1.4725    0.0000 H       1  LIG1        0.0657
     18 H           2.7531    0.2426    0.0000 H       1  LIG1        0.1030
@<TRIPOS>BOND
     1     1     2    1
     2     2     3   ar
     3     3     4   ar
     4     4     5   ar
     5     5     6   ar
     6     6     7   ar
     7     7     8   ar
     8     8     9   ar
     9     5     9   ar
    10     6    10   ar
    11     2    10   ar
    12    10    11    2
    13     1    12    1
    14     1    13    1
    15     1    14    1
    16     3    15    1
    17     4    16    1
    18     7    17    1
    19     8    18    1
