@<TRIPOS>MOLECULE
O=c1cncn[nH]1
 10 10 0 0 0
SMALL
GASTEIGER
Energy = 0

@<TRIPOS>ATOM
      1 O          -0.0152   -1.3781    0.0000 O.2     1  LIG1       -0.2648
      2 C          -0.0152   -0.5531    0.0000 C.ar    1  LIG1        0.2829
      3 N           0.6993   -0.1406    0.0000 N.ar    1  LIG1       -0.2406
      4 N           0.6993    0.6844    0.0000 N.ar    1  LIG1       -0.1595
      5 C          -0.0152    1.0969    0.0000 C.ar    1  LIG1        0.1362
      6 N          -0.7296    0.6844    0.0000 N.ar    1  LIG1       -0.2366
      7 C          -0.7296   -0.1406    0.0000 C.ar    1  LIG1        0.0950
      8 H           1.6368   -0.6819    0.0000 H       1  LIG1        0.1922
      9 H          -0.0152    2.1984    0.0000 H       1  LIG1        0.1065
     10 H          -1.6835   -0.6913    0.0000 H       1  LIG1        0.0886
@<TRIPOS>BOND
     1     1     2    2
     2     2     3   ar
     3     3     4   ar
     4     4     5   ar
     5     5     6   ar
     6     6     7   ar
     7     2     7   ar
     8     3     8    1
     9     5     9    1
    10     7    10    1
