@<TRIPOS>MOLECULE
O=c1[nH]c(=O)n2cccc2[nH]1
 16 17 0 0 0
SMALL
GASTEIGER
Energy = 0

@<TRIPOS>ATOM
      1 O           1.6821   -0.9154    0.0000 O.2     1  LIG1       -0.2466
      2 C           0.9676   -0.5029    0.0000 C.ar    1  LIG1        0.3294
      3 N           0.9676    0.3221    0.0000 N.ar    1  LIG1       -0.2598
      4 C           0.2531    0.7346    0.0000 C.ar    1  LIG1        0.3360
      5 O           0.2531    1.5596    0.0000 O.2     1  LIG1       -0.2460
      6 N          -0.4613    0.3221    0.0000 N.ar    1  LIG1       -0.2548
      7 C          -1.2460    0.5771    0.0000 C.ar    1  LIG1        0.0161
      8 C          -1.7309   -0.0904    0.0000 C.ar    1  LIG1       -0.0416
      9 C          -1.2460   -0.7578    0.0000 C.ar    1  LIG1       -0.0191
     10 C          -0.4613   -0.5029    0.0000 C.ar    1  LIG1        0.1230
     11 N           0.2531   -0.9154    0.0000 N.ar    1  LIG1       -0.2935
     12 H           1.9051    0.8634    0.0000 H       1  LIG1        0.1749
     13 H          -1.5864    1.6247    0.0000 H       1  LIG1        0.0815
     14 H          -2.8324   -0.0904    0.0000 H       1  LIG1        0.0633
     15 H          -1.5864   -1.8054    0.0000 H       1  LIG1        0.0654
     16 H           0.2531   -1.9979    0.0000 H       1  LIG1        0.1718
@<TRIPOS>BOND
     1     1     2    2
     2     2     3   ar
     3     3     4   ar
     4     4     5    2
     5     4     6   ar
     6     6     7   ar
     7     7     8   ar
     8     8     9   ar
     9     9    10   ar
    10     6    10   ar
    11    10    11   ar
    12     2    11   ar
    13     3    12    1
    14     7    13    1
    15     8    14    1
    16     9    15    1
    17    11    16    1
