@<TRIPOS>MOLECULE
Cn1nccnc1=O
 13 13 0 0 0
SMALL
GASTEIGER
Energy = 0

@<TRIPOS>ATOM
      1 C           0.2156   -1.3232    0.0000 C.3     1  LIG1        0.0354
      2 N           0.2156   -0.4982    0.0000 N.ar    1  LIG1       -0.2163
      3 N           0.9300   -0.0857    0.0000 N.ar    1  LIG1       -0.1742
      4 C           0.9300    0.7393    0.0000 C.ar    1  LIG1        0.0663
      5 C           0.2156    1.1518    0.0000 C.ar    1  LIG1        0.0528
      6 N          -0.4989    0.7393    0.0000 N.ar    1  LIG1       -0.1987
      7 C          -0.4989   -0.0857    0.0000 C.ar    1  LIG1        0.3643
      8 O          -1.2134   -0.4982    0.0000 O.2     1  LIG1       -0.2430
      9 H           1.2902   -1.7037    0.0000 H       1  LIG1        0.0474
     10 H          -0.3429   -1.7179   -0.9121 H       1  LIG1        0.0474
     11 H          -0.3146   -1.6979    0.9370 H       1  LIG1        0.0474
     12 H           1.8839    1.2900    0.0000 H       1  LIG1        0.0863
     13 H           0.2156    2.2533    0.0000 H       1  LIG1        0.0847
@<TRIPOS>BOND
     1     1     2    1
     2     2     3   ar
     3     3     4   ar
     4     4     5   ar
     5     5     6   ar
     6     6     7   ar
     7     2     7   ar
     8     7     8    2
     9     1     9    1
    10     1    10    1
    11     1    11    1
    12     4    12    1
    13     5    13    1
