@<TRIPOS>MOLECULE
O=c1cnc2c(=O)[nH]cnc2[nH]1
 16 17 0 0 0
SMALL
GASTEIGER
Energy = 0

@<TRIPOS>ATOM
      1 O           2.0095    0.9023    0.0000 O.2     1  LIG1       -0.2662
      2 C           1.2950    0.4898    0.0000 C.ar    1  LIG1        0.2684
      3 N           0.5806    0.9023    0.0000 N.ar    1  LIG1       -0.3043
      4 C          -0.1339    0.4898    0.0000 C.ar    1  LIG1        0.1662
      5 C          -0.1339   -0.3352    0.0000 C.ar    1  LIG1        0.1704
      6 N           0.5806   -0.7477    0.0000 N.ar    1  LIG1       -0.2412
      7 C           1.2950   -0.3352    0.0000 C.ar    1  LIG1        0.0928
      8 C          -0.8484   -0.7477    0.0000 C.ar    1  LIG1        0.2789
      9 O          -0.8484   -1.5727    0.0000 O.2     1  LIG1       -0.2654
     10 N          -1.5628   -0.3352    0.0000 N.ar    1  LIG1       -0.3116
     11 C          -1.5628    0.4898    0.0000 C.ar    1  LIG1        0.0984
     12 N          -0.8484    0.9023    0.0000 N.ar    1  LIG1       -0.2180
     13 H           0.5806    1.9848    0.0000 H       1  LIG1        0.1704
     14 H           2.2489   -0.8859    0.0000 H       1  LIG1        0.0885
     15 H          -2.5003   -0.8764    0.0000 H       1  LIG1        0.1698
     16 H          -2.5167    1.0405    0.0000 H       1  LIG1        0.1028
@<TRIPOS>BOND
     1     1     2    2
     2     2     3   ar
     3     3     4   ar
     4     4     5   ar
     5     5     6   ar
     6     6     7   ar
     7     2     7   ar
     8     5     8   ar
     9     8     9    2
    10     8    10   ar
    11    10    11   ar
    12    11    12   ar
    13     4    12   ar
    14     3    13    1
    15     7    14    1
    16    10    15    1
    17    11    16    1
