@<TRIPOS>MOLECULE
c1nc2ncccc2o1
 13 14 0 0 0
SMALL
GASTEIGER
Energy = 0

@<TRIPOS>ATOM
      1 O           0.9063   -0.6702    0.0000 O.2     1  LIG1       -0.4408
      2 C           1.3912   -0.0027    0.0000 C.ar    1  LIG1        0.1846
      3 N           0.9063    0.6647    0.0000 N.ar    1  LIG1       -0.1965
      4 C           0.1217    0.4098    0.0000 C.ar    1  LIG1        0.1984
      5 N          -0.5928    0.8223    0.0000 N.ar    1  LIG1       -0.2331
      6 C          -1.3073    0.4098    0.0000 C.ar    1  LIG1        0.0302
      7 C          -1.3073   -0.4152    0.0000 C.ar    1  LIG1       -0.0400
      8 C          -0.5928   -0.8277    0.0000 C.ar    1  LIG1       -0.0141
      9 C           0.1217   -0.4152    0.0000 C.ar    1  LIG1        0.1737
     10 H           2.4927   -0.0027    0.0000 H       1  LIG1        0.1255
     11 H          -2.2612    0.9606    0.0000 H       1  LIG1        0.0830
     12 H          -2.2612   -0.9660    0.0000 H       1  LIG1        0.0634
     13 H          -0.5928   -1.9292    0.0000 H       1  LIG1        0.0656
@<TRIPOS>BOND
     1     1     2   ar
     2     2     3   ar
     3     3     4   ar
     4     4     5   ar
     5     5     6   ar
     6     6     7   ar
     7     7     8   ar
     8     8     9   ar
     9     1     9   ar
    10     4     9   ar
    11     2    10    1
    12     6    11    1
    13     7    12    1
    14     8    13    1
