@<TRIPOS>MOLECULE
Cn1ccc(=O)c2cnncc12
 19 20 0 0 0
SMALL
GASTEIGER
Energy = 0

@<TRIPOS>ATOM
      1 C           0.6124   -1.6820    0.0000 C.3     1  LIG1        0.0119
      2 N           0.6124   -0.8570    0.0000 N.ar    1  LIG1       -0.3482
      3 C           1.3268   -0.4445    0.0000 C.ar    1  LIG1        0.0085
      4 C           1.3268    0.3805    0.0000 C.ar    1  LIG1        0.0019
      5 C           0.6124    0.7930    0.0000 C.ar    1  LIG1        0.1910
      6 O           0.6124    1.6180    0.0000 O.2     1  LIG1       -0.2871
      7 C          -0.1021    0.3805    0.0000 C.ar    1  LIG1        0.0664
      8 C          -0.8166    0.7930    0.0000 C.ar    1  LIG1        0.0627
      9 N          -1.5310    0.3805    0.0000 N.ar    1  LIG1       -0.1569
     10 N          -1.5310   -0.4445    0.0000 N.ar    1  LIG1       -0.1556
     11 C          -0.8166   -0.8570    0.0000 C.ar    1  LIG1        0.0741
     12 C          -0.1021   -0.4445    0.0000 C.ar    1  LIG1        0.0741
     13 H           1.6870   -2.0625    0.0000 H       1  LIG1        0.0456
     14 H           0.0539   -2.0767   -0.9121 H       1  LIG1        0.0456
     15 H           0.0822   -2.0567    0.9370 H       1  LIG1        0.0456
     16 H           2.2807   -0.9952    0.0000 H       1  LIG1        0.0810
     17 H           2.2807    0.9312    0.0000 H       1  LIG1        0.0670
     18 H          -0.8166    1.8945    0.0000 H       1  LIG1        0.0856
     19 H          -0.8166   -1.9585    0.0000 H       1  LIG1        0.0869
@<TRIPOS>BOND
     1     1     2    1
     2     2     3   ar
     3     3     4   ar
     4     4     5   ar
     5     5     6    2
     6     5     7   ar
     7     7     8   ar
     8     8     9   ar
     9     9    10   ar
    10    10    11   ar
    11    11    12   ar
    12     2    12   ar
    13     7    12   ar
    14     1    13    1
    15     1    14    1
    16     1    15    1
    17     3    16    1
    18     4    17    1
    19     8    18    1
    20    11    19    1
