@<TRIPOS>MOLECULE
Cn1cnc2nccn2c1=O
 17 18 0 0 0
SMALL
GASTEIGER
Energy = 0

@<TRIPOS>ATOM
      1 C           1.7459   -0.5823    0.0000 C.3     1  LIG1        0.0175
      2 N           1.0314   -0.1698    0.0000 N.ar    1  LIG1       -0.2870
      3 C           1.0314    0.6552    0.0000 C.ar    1  LIG1        0.1033
      4 N           0.3169    1.0677    0.0000 N.ar    1  LIG1       -0.2019
      5 C          -0.3975    0.6552    0.0000 C.ar    1  LIG1        0.2400
      6 N          -1.1821    0.9102    0.0000 N.ar    1  LIG1       -0.2187
      7 C          -1.6671    0.2427    0.0000 C.ar    1  LIG1        0.0481
      8 C          -1.1821   -0.4247    0.0000 C.ar    1  LIG1        0.0356
      9 N          -0.3975   -0.1698    0.0000 N.ar    1  LIG1       -0.2359
     10 C           0.3169   -0.5823    0.0000 C.ar    1  LIG1        0.3368
     11 O           0.3169   -1.4073    0.0000 O.2     1  LIG1       -0.2459
     12 H           2.6127    0.1581    0.0000 H       1  LIG1        0.0457
     13 H           1.8085   -1.2633   -0.9121 H       1  LIG1        0.0457
     14 H           1.8053   -1.2289    0.9370 H       1  LIG1        0.0457
     15 H           1.9853    1.2060    0.0000 H       1  LIG1        0.1031
     16 H          -2.7686    0.2427    0.0000 H       1  LIG1        0.0846
     17 H          -1.5224   -1.4723    0.0000 H       1  LIG1        0.0831
@<TRIPOS>BOND
     1     1     2    1
     2     2     3   ar
     3     3     4   ar
     4     4     5   ar
     5     5     6   ar
     6     6     7   ar
     7     7     8   ar
     8     8     9   ar
     9     5     9   ar
    10     9    10   ar
    11     2    10   ar
    12    10    11    2
    13     1    12    1
    14     1    13    1
    15     1    14    1
    16     3    15    1
    17     7    16    1
    18     8    17    1
