@<TRIPOS>MOLECULE
c1cc2nncn2s1
 11 12 0 0 0
SMALL
GASTEIGER
Energy = 0

@<TRIPOS>ATOM
      1 S           0.6893   -0.5620    0.0000 S.2     1  LIG1       -0.0122
      2 C           1.1743    0.1054    0.0000 C.ar    1  LIG1       -0.0036
      3 C           0.6893    0.7729    0.0000 C.ar    1  LIG1       -0.0086
      4 C          -0.0953    0.5179    0.0000 C.ar    1  LIG1        0.1677
      5 N          -0.8799    0.7729    0.0000 N.ar    1  LIG1       -0.1291
      6 N          -1.3648    0.1054    0.0000 N.ar    1  LIG1       -0.1367
      7 C          -0.8799   -0.5620    0.0000 C.ar    1  LIG1        0.1305
      8 N          -0.0953   -0.3071    0.0000 N.ar    1  LIG1       -0.2505
      9 H           2.2758    0.1054    0.0000 H       1  LIG1        0.0709
     10 H           1.0296    1.8205    0.0000 H       1  LIG1        0.0660
     11 H          -1.2203   -1.6096    0.0000 H       1  LIG1        0.1057
@<TRIPOS>BOND
     1     1     2   ar
     2     2     3   ar
     3     3     4   ar
     4     4     5   ar
     5     5     6   ar
     6     6     7   ar
     7     7     8   ar
     8     1     8   ar
     9     4     8   ar
    10     2     9    1
    11     3    10    1
    12     7    11    1
