@<TRIPOS>MOLECULE
O=c1[nH]c(=O)c2[nH]ccc2[nH]1
 16 17 0 0 0
SMALL
GASTEIGER
Energy = 0

@<TRIPOS>ATOM
      1 O          -1.6928   -0.9188    0.0000 O.2     1  LIG1       -0.2467
      2 C          -0.9783   -0.5063    0.0000 C.ar    1  LIG1        0.3273
      3 N          -0.9783    0.3187    0.0000 N.ar    1  LIG1       -0.2734
      4 C          -0.2638    0.7312    0.0000 C.ar    1  LIG1        0.2780
      5 O          -0.2638    1.5562    0.0000 O.2     1  LIG1       -0.2655
      6 C           0.4506    0.3187    0.0000 C.ar    1  LIG1        0.1282
      7 C           0.4506   -0.5063    0.0000 C.ar    1  LIG1        0.0734
      8 N          -0.2638   -0.9188    0.0000 N.ar    1  LIG1       -0.3058
      9 C           1.2352   -0.7613    0.0000 C.ar    1  LIG1       -0.0201
     10 C           1.7202   -0.0938    0.0000 C.ar    1  LIG1        0.0043
     11 N           1.2352    0.5736    0.0000 N.ar    1  LIG1       -0.3553
     12 H          -1.9158    0.8600    0.0000 H       1  LIG1        0.1735
     13 H          -0.2638   -2.0013    0.0000 H       1  LIG1        0.1704
     14 H           1.5755   -1.8089    0.0000 H       1  LIG1        0.0653
     15 H           2.8217   -0.0938    0.0000 H       1  LIG1        0.0807
     16 H           1.5697    1.6031    0.0000 H       1  LIG1        0.1655
@<TRIPOS>BOND
     1     1     2    2
     2     2     3   ar
     3     3     4   ar
     4     4     5    2
     5     4     6   ar
     6     6     7   ar
     7     7     8   ar
     8     2     8   ar
     9     7     9   ar
    10     9    10   ar
    11    10    11   ar
    12     6    11   ar
    13     3    12    1
    14     8    13    1
    15     9    14    1
    16    10    15    1
    17    11    16    1
