@<TRIPOS>MOLECULE
O=c1cn[nH]c2ccnn12
 14 15 0 0 0
SMALL
GASTEIGER
Energy = 0

@<TRIPOS>ATOM
      1 O           0.4757   -1.4525    0.0000 O.2     1  LIG1       -0.2641
      2 C           0.4757   -0.6275    0.0000 C.ar    1  LIG1        0.2930
      3 C           1.1902   -0.2150    0.0000 C.ar    1  LIG1        0.1140
      4 N           1.1902    0.6100    0.0000 N.ar    1  LIG1       -0.1751
      5 N           0.4757    1.0225    0.0000 N.ar    1  LIG1       -0.2604
      6 C          -0.2388    0.6100    0.0000 C.ar    1  LIG1        0.1538
      7 C          -1.0234    0.8649    0.0000 C.ar    1  LIG1        0.0019
      8 C          -1.5083    0.1975    0.0000 C.ar    1  LIG1        0.0520
      9 N          -1.0234   -0.4699    0.0000 N.ar    1  LIG1       -0.1702
     10 N          -0.2388   -0.2150    0.0000 N.ar    1  LIG1       -0.1776
     11 H           2.1441   -0.7658    0.0000 H       1  LIG1        0.0903
     12 H           0.4757    2.1050    0.0000 H       1  LIG1        0.1905
     13 H          -1.3638    1.9125    0.0000 H       1  LIG1        0.0670
     14 H          -2.6098    0.1975    0.0000 H       1  LIG1        0.0848
@<TRIPOS>BOND
     1     1     2    2
     2     2     3   ar
     3     3     4   ar
     4     4     5   ar
     5     5     6   ar
     6     6     7   ar
     7     7     8   ar
     8     8     9   ar
     9     9    10   ar
    10     2    10   ar
    11     6    10   ar
    12     3    11    1
    13     5    12    1
    14     7    13    1
    15     8    14    1
