@<TRIPOS>MOLECULE
O=c1cc[nH]c2cn[nH]c(=O)c12
 17 18 0 0 0
SMALL
GASTEIGER
Energy = 0

@<TRIPOS>ATOM
      1 O           0.6874   -1.3265    0.0000 O.2     1  LIG1       -0.2656
      2 C           0.6874   -0.5015    0.0000 C.ar    1  LIG1        0.2776
      3 N           1.4019   -0.0890    0.0000 N.ar    1  LIG1       -0.2425
      4 N           1.4019    0.7360    0.0000 N.ar    1  LIG1       -0.1773
      5 C           0.6874    1.1485    0.0000 C.ar    1  LIG1        0.0720
      6 C          -0.0271    0.7360    0.0000 C.ar    1  LIG1        0.0754
      7 C          -0.0271   -0.0890    0.0000 C.ar    1  LIG1        0.1120
      8 C          -0.7415   -0.5015    0.0000 C.ar    1  LIG1        0.1947
      9 O          -0.7415   -1.3265    0.0000 O.2     1  LIG1       -0.2870
     10 C          -1.4560   -0.0890    0.0000 C.ar    1  LIG1        0.0018
     11 C          -1.4560    0.7360    0.0000 C.ar    1  LIG1        0.0058
     12 N          -0.7415    1.1485    0.0000 N.ar    1  LIG1       -0.3591
     13 H           2.3394   -0.6303    0.0000 H       1  LIG1        0.1921
     14 H           0.6874    2.2500    0.0000 H       1  LIG1        0.0868
     15 H          -2.4099   -0.6398    0.0000 H       1  LIG1        0.0670
     16 H          -2.4099    1.2868    0.0000 H       1  LIG1        0.0808
     17 H          -0.7415    2.2310    0.0000 H       1  LIG1        0.1654
@<TRIPOS>BOND
     1     1     2    2
     2     2     3   ar
     3     3     4   ar
     4     4     5   ar
     5     5     6   ar
     6     6     7   ar
     7     2     7   ar
     8     7     8   ar
     9     8     9    2
    10     8    10   ar
    11    10    11   ar
    12    11    12   ar
    13     6    12   ar
    14     3    13    1
    15     5    14    1
    16    10    15    1
    17    11    16    1
    18    12    17    1
