@<TRIPOS>MOLECULE
c1n[nH]c2cnncc12
 13 14 0 0 0
SMALL
GASTEIGER
Energy = 0

@<TRIPOS>ATOM
      1 N           0.9483   -0.6560    0.0000 N.ar    1  LIG1       -0.2754
      2 N           1.4332    0.0115    0.0000 N.ar    1  LIG1       -0.1811
      3 C           0.9483    0.6789    0.0000 C.ar    1  LIG1        0.0584
      4 C           0.1636    0.4240    0.0000 C.ar    1  LIG1        0.0408
      5 C          -0.5508    0.8365    0.0000 C.ar    1  LIG1        0.0606
      6 N          -1.2653    0.4240    0.0000 N.ar    1  LIG1       -0.1569
      7 N          -1.2653   -0.4010    0.0000 N.ar    1  LIG1       -0.1556
      8 C          -0.5508   -0.8135    0.0000 C.ar    1  LIG1        0.0753
      9 C           0.1636   -0.4010    0.0000 C.ar    1  LIG1        0.0870
     10 H           1.2828   -1.6855    0.0000 H       1  LIG1        0.1890
     11 H           1.2887    1.7265    0.0000 H       1  LIG1        0.0854
     12 H          -0.5508    1.9380    0.0000 H       1  LIG1        0.0855
     13 H          -0.5508   -1.9150    0.0000 H       1  LIG1        0.0870
@<TRIPOS>BOND
     1     1     2   ar
     2     2     3   ar
     3     3     4   ar
     4     4     5   ar
     5     5     6   ar
     6     6     7   ar
     7     7     8   ar
     8     8     9   ar
     9     1     9   ar
    10     4     9   ar
    11     1    10    1
    12     3    11    1
    13     5    12    1
    14     8    13    1
