@<TRIPOS>MOLECULE
Cn1cnc2[nH]ncc2c1=O
 17 18 0 0 0
SMALL
GASTEIGER
Energy = 0

@<TRIPOS>ATOM
      1 C          -1.7635   -0.5880    0.0000 C.3     1  LIG1        0.0161
      2 N          -1.0490   -0.1755    0.0000 N.ar    1  LIG1       -0.3017
      3 C          -1.0490    0.6495    0.0000 C.ar    1  LIG1        0.1007
      4 N          -0.3345    1.0620    0.0000 N.ar    1  LIG1       -0.2180
      5 C           0.3799    0.6495    0.0000 C.ar    1  LIG1        0.1625
      6 C           0.3799   -0.1755    0.0000 C.ar    1  LIG1        0.1027
      7 C           1.1646   -0.4304    0.0000 C.ar    1  LIG1        0.0637
      8 N           1.6495    0.2370    0.0000 N.ar    1  LIG1       -0.1797
      9 N           1.1646    0.9045    0.0000 N.ar    1  LIG1       -0.2600
     10 C          -0.3345   -0.5880    0.0000 C.ar    1  LIG1        0.2644
     11 O          -0.3345   -1.4130    0.0000 O.2     1  LIG1       -0.2668
     12 H          -2.6303    0.1524    0.0000 H       1  LIG1        0.0457
     13 H          -1.8261   -1.2690    0.9121 H       1  LIG1        0.0457
     14 H          -1.8229   -1.2346   -0.9370 H       1  LIG1        0.0457
     15 H          -2.0029    1.2003    0.0000 H       1  LIG1        0.1030
     16 H           1.5050   -1.4780    0.0000 H       1  LIG1        0.0856
     17 H           1.4991    1.9340    0.0000 H       1  LIG1        0.1905
@<TRIPOS>BOND
     1     1     2    1
     2     2     3   ar
     3     3     4   ar
     4     4     5   ar
     5     5     6   ar
     6     6     7   ar
     7     7     8   ar
     8     8     9   ar
     9     5     9   ar
    10     6    10   ar
    11     2    10   ar
    12    10    11    2
    13     1    12    1
    14     1    13    1
    15     1    14    1
    16     3    15    1
    17     7    16    1
    18     9    17    1
