@<TRIPOS>MOLECULE
Cn1cnc2nc[nH]c12
 15 16 0 0 0
SMALL
GASTEIGER
Energy = 0

@<TRIPOS>ATOM
      1 C           0.9320   -1.3018    0.0000 C.3     1  LIG1        0.0146
      2 N           0.6771   -0.5172    0.0000 N.ar    1  LIG1       -0.3183
      3 C           1.1620    0.1502    0.0000 C.ar    1  LIG1        0.0997
      4 N           0.6771    0.8177    0.0000 N.ar    1  LIG1       -0.2150
      5 C          -0.1076    0.5627    0.0000 C.ar    1  LIG1        0.1968
      6 C          -0.1076   -0.2623    0.0000 C.ar    1  LIG1        0.1585
      7 N          -0.8922   -0.5172    0.0000 N.ar    1  LIG1       -0.3293
      8 C          -1.3771    0.1502    0.0000 C.ar    1  LIG1        0.0973
      9 N          -0.8922    0.8177    0.0000 N.ar    1  LIG1       -0.2152
     10 H           2.0716   -1.3317    0.0000 H       1  LIG1        0.0457
     11 H           0.5228   -1.8497   -0.9121 H       1  LIG1        0.0457
     12 H           0.5435   -1.8220    0.9370 H       1  LIG1        0.0457
     13 H           2.2635    0.1502    0.0000 H       1  LIG1        0.1030
     14 H          -1.2267   -1.5467    0.0000 H       1  LIG1        0.1682
     15 H          -2.4786    0.1502    0.0000 H       1  LIG1        0.1028
@<TRIPOS>BOND
     1     1     2    1
     2     2     3   ar
     3     3     4   ar
     4     4     5   ar
     5     5     6   ar
     6     2     6   ar
     7     6     7   ar
     8     7     8   ar
     9     8     9   ar
    10     5     9   ar
    11     1    10    1
    12     1    11    1
    13     1    12    1
    14     3    13    1
    15     7    14    1
    16     8    15    1
