@<TRIPOS>MOLECULE
c1nnc2cnnnc2n1
 12 13 0 0 0
SMALL
GASTEIGER
Energy = 0

@<TRIPOS>ATOM
      1 C           1.4397   -0.4063    0.0000 C.ar    1  LIG1        0.1407
      2 N           1.4397    0.4187    0.0000 N.ar    1  LIG1       -0.1370
      3 N           0.7253    0.8312    0.0000 N.ar    1  LIG1       -0.1430
      4 C           0.0108    0.4187    0.0000 C.ar    1  LIG1        0.1517
      5 C          -0.7037    0.8312    0.0000 C.ar    1  LIG1        0.0824
      6 N          -1.4181    0.4187    0.0000 N.ar    1  LIG1       -0.1354
      7 N          -1.4181   -0.4063    0.0000 N.ar    1  LIG1       -0.0412
      8 N          -0.7037   -0.8188    0.0000 N.ar    1  LIG1       -0.1075
      9 C           0.0108   -0.4063    0.0000 C.ar    1  LIG1        0.2067
     10 N           0.7253   -0.8188    0.0000 N.ar    1  LIG1       -0.2111
     11 H           2.3936   -0.9570    0.0000 H       1  LIG1        0.1066
     12 H          -0.7037    1.9327    0.0000 H       1  LIG1        0.0872
@<TRIPOS>BOND
     1     1     2   ar
     2     2     3   ar
     3     3     4   ar
     4     4     5   ar
     5     5     6   ar
     6     6     7   ar
     7     7     8   ar
     8     8     9   ar
     9     4     9   ar
    10     9    10   ar
    11     1    10   ar
    12     1    11    1
    13     5    12    1
