@<TRIPOS>MOLECULE
O=c1ccnc2nc[nH]n12
 14 15 0 0 0
SMALL
GASTEIGER
Energy = 0

@<TRIPOS>ATOM
      1 O           0.5092   -1.4564    0.0000 O.2     1  LIG1       -0.2658
      2 C           0.5092   -0.6314    0.0000 C.ar    1  LIG1        0.2741
      3 C           1.2236   -0.2189    0.0000 C.ar    1  LIG1        0.0229
      4 C           1.2236    0.6061    0.0000 C.ar    1  LIG1        0.0366
      5 N           0.5092    1.0186    0.0000 N.ar    1  LIG1       -0.2189
      6 C          -0.2053    0.6061    0.0000 C.ar    1  LIG1        0.2541
      7 N          -0.9899    0.8611    0.0000 N.ar    1  LIG1       -0.1998
      8 C          -1.4749    0.1936    0.0000 C.ar    1  LIG1        0.1122
      9 N          -0.9899   -0.4738    0.0000 N.ar    1  LIG1       -0.2771
     10 N          -0.2053   -0.2189    0.0000 N.ar    1  LIG1       -0.1832
     11 H           2.1775   -0.7696    0.0000 H       1  LIG1        0.0687
     12 H           2.1775    1.1568    0.0000 H       1  LIG1        0.0832
     13 H          -2.5764    0.1936    0.0000 H       1  LIG1        0.1042
     14 H          -1.3244   -1.5033    0.0000 H       1  LIG1        0.1885
@<TRIPOS>BOND
     1     1     2    2
     2     2     3   ar
     3     3     4   ar
     4     4     5   ar
     5     5     6   ar
     6     6     7   ar
     7     7     8   ar
     8     8     9   ar
     9     9    10   ar
    10     2    10   ar
    11     6    10   ar
    12     3    11    1
    13     4    12    1
    14     8    13    1
    15     9    14    1
