@<TRIPOS>MOLECULE
c1nc2cnccc2s1
 13 14 0 0 0
SMALL
GASTEIGER
Energy = 0

@<TRIPOS>ATOM
      1 S           0.8069   -0.5825    0.0000 S.2     1  LIG1       -0.0753
      2 C           1.2918    0.0850    0.0000 C.ar    1  LIG1        0.0660
      3 N           0.8069    0.7524    0.0000 N.ar    1  LIG1       -0.2459
      4 C           0.0223    0.4975    0.0000 C.ar    1  LIG1        0.0962
      5 C          -0.6922    0.9100    0.0000 C.ar    1  LIG1        0.0540
      6 N          -1.4067    0.4975    0.0000 N.ar    1  LIG1       -0.2611
      7 C          -1.4067   -0.3275    0.0000 C.ar    1  LIG1        0.0287
      8 C          -0.6922   -0.7400    0.0000 C.ar    1  LIG1       -0.0278
      9 C           0.0223   -0.3275    0.0000 C.ar    1  LIG1        0.0419
     10 H           2.3933    0.0850    0.0000 H       1  LIG1        0.0907
     11 H          -0.6922    2.0115    0.0000 H       1  LIG1        0.0851
     12 H          -2.3606   -0.8783    0.0000 H       1  LIG1        0.0830
     13 H          -0.6922   -1.8415    0.0000 H       1  LIG1        0.0644
@<TRIPOS>BOND
     1     1     2   ar
     2     2     3   ar
     3     3     4   ar
     4     4     5   ar
     5     5     6   ar
     6     6     7   ar
     7     7     8   ar
     8     8     9   ar
     9     1     9   ar
    10     4     9   ar
    11     2    10    1
    12     5    11    1
    13     7    12    1
    14     8    13    1
