@<TRIPOS>MOLECULE
c1cc2cnnnc2cn1
 14 15 0 0 0
SMALL
GASTEIGER
Energy = 0

@<TRIPOS>ATOM
      1 C           1.4623    0.4318    0.0000 C.ar    1  LIG1        0.0283
      2 C           0.7479    0.8443    0.0000 C.ar    1  LIG1       -0.0328
      3 C           0.0334    0.4318    0.0000 C.ar    1  LIG1        0.0249
      4 C          -0.6811    0.8443    0.0000 C.ar    1  LIG1        0.0609
      5 N          -1.3955    0.4318    0.0000 N.ar    1  LIG1       -0.1371
      6 N          -1.3955   -0.3932    0.0000 N.ar    1  LIG1       -0.0427
      7 N          -0.6811   -0.8057    0.0000 N.ar    1  LIG1       -0.1278
      8 C           0.0334   -0.3932    0.0000 C.ar    1  LIG1        0.1145
      9 C           0.7479   -0.8057    0.0000 C.ar    1  LIG1        0.0553
     10 N           1.4623   -0.3932    0.0000 N.ar    1  LIG1       -0.2611
     11 H           2.4162    0.9825    0.0000 H       1  LIG1        0.0830
     12 H           0.7479    1.9458    0.0000 H       1  LIG1        0.0640
     13 H          -0.6811    1.9458    0.0000 H       1  LIG1        0.0855
     14 H           0.7479   -1.9072    0.0000 H       1  LIG1        0.0852
@<TRIPOS>BOND
     1     1     2   ar
     2     2     3   ar
     3     3     4   ar
     4     4     5   ar
     5     5     6   ar
     6     6     7   ar
     7     7     8   ar
     8     3     8   ar
     9     8     9   ar
    10     9    10   ar
    11     1    10   ar
    12     1    11    1
    13     2    12    1
    14     4    13    1
    15     9    14    1
