@<TRIPOS>MOLECULE
O=c1ccn2cccnc2n1
 16 17 0 0 0
SMALL
GASTEIGER
Energy = 0

@<TRIPOS>ATOM
      1 O           1.9021   -0.7147    0.0000 O.2     1  LIG1       -0.2657
      2 C           1.1876   -0.3022    0.0000 C.ar    1  LIG1        0.2747
      3 C           1.1876    0.5228    0.0000 C.ar    1  LIG1        0.0213
      4 C           0.4731    0.9353    0.0000 C.ar    1  LIG1        0.0177
      5 N          -0.2413    0.5228    0.0000 N.ar    1  LIG1       -0.2921
      6 C          -0.9558    0.9353    0.0000 C.ar    1  LIG1        0.0140
      7 C          -1.6703    0.5228    0.0000 C.ar    1  LIG1       -0.0269
      8 C          -1.6703   -0.3022    0.0000 C.ar    1  LIG1        0.0328
      9 N          -0.9558   -0.7147    0.0000 N.ar    1  LIG1       -0.2201
     10 C          -0.2413   -0.3022    0.0000 C.ar    1  LIG1        0.2379
     11 N           0.4731   -0.7147    0.0000 N.ar    1  LIG1       -0.1729
     12 H           2.1415    1.0736    0.0000 H       1  LIG1        0.0687
     13 H           0.4731    2.0368    0.0000 H       1  LIG1        0.0815
     14 H          -0.9558    2.0368    0.0000 H       1  LIG1        0.0814
     15 H          -2.6242    1.0736    0.0000 H       1  LIG1        0.0647
     16 H          -2.6242   -0.8530    0.0000 H       1  LIG1        0.0831
@<TRIPOS>BOND
     1     1     2    2
     2     2     3   ar
     3     3     4   ar
     4     4     5   ar
     5     5     6   ar
     6     6     7   ar
     7     7     8   ar
     8     8     9   ar
     9     9    10   ar
    10     5    10   ar
    11    10    11   ar
    12     2    11   ar
    13     3    12    1
    14     4    13    1
    15     6    14    1
    16     7    15    1
    17     8    16    1
