@<TRIPOS>MOLECULE
c1snc2nnccc12
 12 13 0 0 0
SMALL
GASTEIGER
Energy = 0

@<TRIPOS>ATOM
      1 S           1.2296    0.0283    0.0000 S.2     1  LIG1        0.0063
      2 C           0.7447    0.6958    0.0000 C.ar    1  LIG1        0.0051
      3 C          -0.0399    0.4408    0.0000 C.ar    1  LIG1        0.0309
      4 C          -0.7544    0.8533    0.0000 C.ar    1  LIG1       -0.0306
      5 C          -1.4689    0.4408    0.0000 C.ar    1  LIG1        0.0507
      6 N          -1.4689   -0.3842    0.0000 N.ar    1  LIG1       -0.1556
      7 N          -0.7544   -0.7967    0.0000 N.ar    1  LIG1       -0.1285
      8 C          -0.0399   -0.3842    0.0000 C.ar    1  LIG1        0.1901
      9 N           0.7447   -0.6391    0.0000 N.ar    1  LIG1       -0.1888
     10 H           1.0851    1.7434    0.0000 H       1  LIG1        0.0715
     11 H          -0.7544    1.9548    0.0000 H       1  LIG1        0.0640
     12 H          -2.4228    0.9916    0.0000 H       1  LIG1        0.0848
@<TRIPOS>BOND
     1     1     2   ar
     2     2     3   ar
     3     3     4   ar
     4     4     5   ar
     5     5     6   ar
     6     6     7   ar
     7     7     8   ar
     8     3     8   ar
     9     8     9   ar
    10     1     9   ar
    11     2    10    1
    12     4    11    1
    13     5    12    1
