@<TRIPOS>MOLECULE
Cn1ncc2cncnc12
 16 17 0 0 0
SMALL
GASTEIGER
Energy = 0

@<TRIPOS>ATOM
      1 C           1.0793   -1.2991    0.0000 C.3     1  LIG1        0.0324
      2 N           0.8243   -0.5145    0.0000 N.ar    1  LIG1       -0.2495
      3 N           1.3092    0.1530    0.0000 N.ar    1  LIG1       -0.1774
      4 C           0.8243    0.8204    0.0000 C.ar    1  LIG1        0.0601
      5 C           0.0397    0.5655    0.0000 C.ar    1  LIG1        0.0566
      6 C          -0.6748    0.9780    0.0000 C.ar    1  LIG1        0.0415
      7 N          -1.3892    0.5655    0.0000 N.ar    1  LIG1       -0.2429
      8 C          -1.3892   -0.2595    0.0000 C.ar    1  LIG1        0.1183
      9 N          -0.6748   -0.6720    0.0000 N.ar    1  LIG1       -0.2163
     10 C           0.0397   -0.2595    0.0000 C.ar    1  LIG1        0.1611
     11 H           2.2189   -1.3289    0.0000 H       1  LIG1        0.0473
     12 H           0.6702   -1.8471   -0.9121 H       1  LIG1        0.0473
     13 H           0.6908   -1.8194    0.9370 H       1  LIG1        0.0473
     14 H           1.1647    1.8680    0.0000 H       1  LIG1        0.0855
     15 H          -0.6748    2.0795    0.0000 H       1  LIG1        0.0838
     16 H          -2.3431   -0.8102    0.0000 H       1  LIG1        0.1047
@<TRIPOS>BOND
     1     1     2    1
     2     2     3   ar
     3     3     4   ar
     4     4     5   ar
     5     5     6   ar
     6     6     7   ar
     7     7     8   ar
     8     8     9   ar
     9     9    10   ar
    10     2    10   ar
    11     5    10   ar
    12     1    11    1
    13     1    12    1
    14     1    13    1
    15     4    14    1
    16     6    15    1
    17     8    16    1
