@<TRIPOS>MOLECULE
O=c1nccc2ncon12
 13 14 0 0 0
SMALL
GASTEIGER
Energy = 0

@<TRIPOS>ATOM
      1 O           0.5132   -1.4309    0.0000 O.2     1  LIG1       -0.2413
      2 C           0.5132   -0.6059    0.0000 C.ar    1  LIG1        0.3832
      3 N           1.2277   -0.1934    0.0000 N.ar    1  LIG1       -0.1988
      4 C           1.2277    0.6316    0.0000 C.ar    1  LIG1        0.0367
      5 C           0.5132    1.0441    0.0000 C.ar    1  LIG1        0.0024
      6 C          -0.2012    0.6316    0.0000 C.ar    1  LIG1        0.1794
      7 N          -0.9859    0.8865    0.0000 N.ar    1  LIG1       -0.1964
      8 C          -1.4708    0.2191    0.0000 C.ar    1  LIG1        0.2128
      9 O          -0.9859   -0.4483    0.0000 O.2     1  LIG1       -0.3550
     10 N          -0.2012   -0.1934    0.0000 N.ar    1  LIG1       -0.1014
     11 H           2.1816    1.1824    0.0000 H       1  LIG1        0.0832
     12 H           0.5132    2.1456    0.0000 H       1  LIG1        0.0670
     13 H          -2.5723    0.2191    0.0000 H       1  LIG1        0.1282
@<TRIPOS>BOND
     1     1     2    2
     2     2     3   ar
     3     3     4   ar
     4     4     5   ar
     5     5     6   ar
     6     6     7   ar
     7     7     8   ar
     8     8     9   ar
     9     9    10   ar
    10     2    10   ar
    11     6    10   ar
    12     4    11    1
    13     5    12    1
    14     8    13    1
