@<TRIPOS>MOLECULE
Cn1ccc2nnccc2c1=O
 19 20 0 0 0
SMALL
GASTEIGER
Energy = 0

@<TRIPOS>ATOM
      1 C           1.9114   -0.6001    0.0000 C.3     1  LIG1        0.0147
      2 N           1.1970   -0.1876    0.0000 N.ar    1  LIG1       -0.3177
      3 C           1.1970    0.6374    0.0000 C.ar    1  LIG1        0.0097
      4 C           0.4825    1.0499    0.0000 C.ar    1  LIG1       -0.0175
      5 C          -0.2320    0.6374    0.0000 C.ar    1  LIG1        0.0999
      6 N          -0.9464    1.0499    0.0000 N.ar    1  LIG1       -0.1491
      7 N          -1.6609    0.6374    0.0000 N.ar    1  LIG1       -0.1571
      8 C          -1.6609   -0.1876    0.0000 C.ar    1  LIG1        0.0507
      9 C          -0.9464   -0.6001    0.0000 C.ar    1  LIG1       -0.0274
     10 C          -0.2320   -0.1876    0.0000 C.ar    1  LIG1        0.0681
     11 C           0.4825   -0.6001    0.0000 C.ar    1  LIG1        0.2604
     12 O           0.4825   -1.4251    0.0000 O.2     1  LIG1       -0.2670
     13 H           2.7783    0.1402    0.0000 H       1  LIG1        0.0457
     14 H           1.9739   -1.2811   -0.9121 H       1  LIG1        0.0457
     15 H           1.9708   -1.2467    0.9370 H       1  LIG1        0.0457
     16 H           2.1509    1.1882    0.0000 H       1  LIG1        0.0810
     17 H           0.4825    2.1514    0.0000 H       1  LIG1        0.0654
     18 H          -2.6148   -0.7384    0.0000 H       1  LIG1        0.0848
     19 H          -0.9464   -1.7016    0.0000 H       1  LIG1        0.0641
@<TRIPOS>BOND
     1     1     2    1
     2     2     3   ar
     3     3     4   ar
     4     4     5   ar
     5     5     6   ar
     6     6     7   ar
     7     7     8   ar
     8     8     9   ar
     9     9    10   ar
    10     5    10   ar
    11    10    11   ar
    12     2    11   ar
    13    11    12    2
    14     1    13    1
    15     1    14    1
    16     1    15    1
    17     3    16    1
    18     4    17    1
    19     8    18    1
    20     9    19    1
