@<TRIPOS>MOLECULE
O=c1cccc2cccnn12
 17 18 0 0 0
SMALL
GASTEIGER
Energy = 0

@<TRIPOS>ATOM
      1 O           0.6431   -1.4439    0.0000 O.2     1  LIG1       -0.2658
      2 C           0.6431   -0.6189    0.0000 C.ar    1  LIG1        0.2718
      3 C           1.3575   -0.2064    0.0000 C.ar    1  LIG1        0.0048
      4 C           1.3575    0.6186    0.0000 C.ar    1  LIG1       -0.0546
      5 C           0.6431    1.0311    0.0000 C.ar    1  LIG1       -0.0360
      6 C          -0.0714    0.6186    0.0000 C.ar    1  LIG1        0.0693
      7 C          -0.7859    1.0311    0.0000 C.ar    1  LIG1       -0.0347
      8 C          -1.5004    0.6186    0.0000 C.ar    1  LIG1       -0.0399
      9 C          -1.5004   -0.2064    0.0000 C.ar    1  LIG1        0.0485
     10 N          -0.7859   -0.6189    0.0000 N.ar    1  LIG1       -0.1717
     11 N          -0.0714   -0.2064    0.0000 N.ar    1  LIG1       -0.1968
     12 H           2.3114   -0.7571    0.0000 H       1  LIG1        0.0672
     13 H           2.3114    1.1693    0.0000 H       1  LIG1        0.0620
     14 H           0.6431    2.1326    0.0000 H       1  LIG1        0.0639
     15 H          -0.7859    2.1326    0.0000 H       1  LIG1        0.0639
     16 H          -2.4543    1.1694    0.0000 H       1  LIG1        0.0634
     17 H          -2.4543   -0.7572    0.0000 H       1  LIG1        0.0847
@<TRIPOS>BOND
     1     1     2    2
     2     2     3   ar
     3     3     4   ar
     4     4     5   ar
     5     5     6   ar
     6     6     7   ar
     7     7     8   ar
     8     8     9   ar
     9     9    10   ar
    10    10    11   ar
    11     2    11   ar
    12     6    11   ar
    13     3    12    1
    14     4    13    1
    15     5    14    1
    16     7    15    1
    17     8    16    1
    18     9    17    1
