@<TRIPOS>MOLECULE
O=c1oc2cccnc2o1
 13 14 0 0 0
SMALL
GASTEIGER
Energy = 0

@<TRIPOS>ATOM
      1 O           1.9383    0.0123    0.0000 O.2     1  LIG1       -0.2020
      2 C           1.1133    0.0123    0.0000 C.ar    1  LIG1        0.5226
      3 O           0.6283    0.6797    0.0000 O.2     1  LIG1       -0.3891
      4 C          -0.1563    0.4248    0.0000 C.ar    1  LIG1        0.1969
      5 C          -0.8708    0.8373    0.0000 C.ar    1  LIG1       -0.0123
      6 C          -1.5852    0.4248    0.0000 C.ar    1  LIG1       -0.0399
      7 C          -1.5852   -0.4002    0.0000 C.ar    1  LIG1        0.0316
      8 N          -0.8708   -0.8127    0.0000 N.ar    1  LIG1       -0.2177
      9 C          -0.1563   -0.4002    0.0000 C.ar    1  LIG1        0.2699
     10 O           0.6283   -0.6552    0.0000 O.2     1  LIG1       -0.3720
     11 H          -0.8708    1.9388    0.0000 H       1  LIG1        0.0656
     12 H          -2.5391    0.9755    0.0000 H       1  LIG1        0.0634
     13 H          -2.5391   -0.9509    0.0000 H       1  LIG1        0.0831
@<TRIPOS>BOND
     1     1     2    2
     2     2     3   ar
     3     3     4   ar
     4     4     5   ar
     5     5     6   ar
     6     6     7   ar
     7     7     8   ar
     8     8     9   ar
     9     4     9   ar
    10     9    10   ar
    11     2    10   ar
    12     5    11    1
    13     6    12    1
    14     7    13    1
