@<TRIPOS>MOLECULE
O=c1ncc2c[nH]c(=O)nc2[nH]1
 16 17 0 0 0
SMALL
GASTEIGER
Energy = 0

@<TRIPOS>ATOM
      1 O           2.1434   -0.6498    0.0000 O.2     1  LIG1       -0.2447
      2 C           1.4289   -0.2373    0.0000 C.ar    1  LIG1        0.3477
      3 N           1.4289    0.5877    0.0000 N.ar    1  LIG1       -0.3122
      4 C           0.7145    1.0002    0.0000 C.ar    1  LIG1        0.0185
      5 C           0.0000    0.5877    0.0000 C.ar    1  LIG1        0.0518
      6 C          -0.7145    1.0002    0.0000 C.ar    1  LIG1        0.0450
      7 N          -1.4289    0.5877    0.0000 N.ar    1  LIG1       -0.2008
      8 C          -1.4289   -0.2373    0.0000 C.ar    1  LIG1        0.3474
      9 O          -2.1434   -0.6498    0.0000 O.2     1  LIG1       -0.2447
     10 N          -0.7145   -0.6498    0.0000 N.ar    1  LIG1       -0.2904
     11 C           0.0000   -0.2373    0.0000 C.ar    1  LIG1        0.1502
     12 N           0.7145   -0.6498    0.0000 N.ar    1  LIG1       -0.1751
     13 H           2.3664    1.1289    0.0000 H       1  LIG1        0.1699
     14 H           0.7145    2.1017    0.0000 H       1  LIG1        0.0816
     15 H          -0.7145    2.1017    0.0000 H       1  LIG1        0.0839
     16 H          -0.7145   -1.7323    0.0000 H       1  LIG1        0.1719
@<TRIPOS>BOND
     1     1     2    2
     2     2     3   ar
     3     3     4   ar
     4     4     5   ar
     5     5     6   ar
     6     6     7   ar
     7     7     8   ar
     8     8     9    2
     9     8    10   ar
    10    10    11   ar
    11     5    11   ar
    12    11    12   ar
    13     2    12   ar
    14     3    13    1
    15     4    14    1
    16     6    15    1
    17    10    16    1
