@<TRIPOS>MOLECULE
O=c1[nH]cc2cccnn12
 15 16 0 0 0
SMALL
GASTEIGER
Energy = 0

@<TRIPOS>ATOM
      1 O           1.0369   -1.2545    0.0000 O.2     1  LIG1       -0.2447
      2 C           0.7819   -0.4699    0.0000 C.ar    1  LIG1        0.3475
      3 N           1.2669    0.1976    0.0000 N.ar    1  LIG1       -0.3109
      4 C           0.7819    0.8650    0.0000 C.ar    1  LIG1        0.0320
      5 C          -0.0027    0.6101    0.0000 C.ar    1  LIG1        0.0867
      6 C          -0.7171    1.0226    0.0000 C.ar    1  LIG1       -0.0332
      7 C          -1.4316    0.6101    0.0000 C.ar    1  LIG1       -0.0399
      8 C          -1.4316   -0.2149    0.0000 C.ar    1  LIG1        0.0486
      9 N          -0.7171   -0.6274    0.0000 N.ar    1  LIG1       -0.1705
     10 N          -0.0027   -0.2149    0.0000 N.ar    1  LIG1       -0.1806
     11 H           2.3494    0.1976    0.0000 H       1  LIG1        0.1699
     12 H           1.1222    1.9126    0.0000 H       1  LIG1        0.0830
     13 H          -0.7171    2.1241    0.0000 H       1  LIG1        0.0640
     14 H          -2.3855    1.1609    0.0000 H       1  LIG1        0.0634
     15 H          -2.3855   -0.7657    0.0000 H       1  LIG1        0.0847
@<TRIPOS>BOND
     1     1     2    2
     2     2     3   ar
     3     3     4   ar
     4     4     5   ar
     5     5     6   ar
     6     6     7   ar
     7     7     8   ar
     8     8     9   ar
     9     9    10   ar
    10     2    10   ar
    11     5    10   ar
    12     3    11    1
    13     4    12    1
    14     6    13    1
    15     7    14    1
    16     8    15    1
