@<TRIPOS>MOLECULE
c1cn2cnccc2n1
 14 15 0 0 0
SMALL
GASTEIGER
Energy = 0

@<TRIPOS>ATOM
      1 C           1.4333   -0.0028    0.0000 C.ar    1  LIG1        0.0465
      2 C           0.9483    0.6647    0.0000 C.ar    1  LIG1        0.0307
      3 N           0.1637    0.4097    0.0000 N.ar    1  LIG1       -0.2903
      4 C          -0.5507    0.8222    0.0000 C.ar    1  LIG1        0.1014
      5 N          -1.2652    0.4097    0.0000 N.ar    1  LIG1       -0.2450
      6 C          -1.2652   -0.4153    0.0000 C.ar    1  LIG1        0.0327
      7 C          -0.5507   -0.8278    0.0000 C.ar    1  LIG1       -0.0007
      8 C           0.1637   -0.4153    0.0000 C.ar    1  LIG1        0.1401
      9 N           0.9483   -0.6702    0.0000 N.ar    1  LIG1       -0.2360
     10 H           2.5348   -0.0028    0.0000 H       1  LIG1        0.0845
     11 H           1.2886    1.7123    0.0000 H       1  LIG1        0.0829
     12 H          -0.5507    1.9237    0.0000 H       1  LIG1        0.1032
     13 H          -2.2191   -0.9661    0.0000 H       1  LIG1        0.0831
     14 H          -0.5507   -1.9293    0.0000 H       1  LIG1        0.0669
@<TRIPOS>BOND
     1     1     2   ar
     2     2     3   ar
     3     3     4   ar
     4     4     5   ar
     5     5     6   ar
     6     6     7   ar
     7     7     8   ar
     8     3     8   ar
     9     8     9   ar
    10     1     9   ar
    11     1    10    1
    12     2    11    1
    13     4    12    1
    14     6    13    1
    15     7    14    1
