@<TRIPOS>MOLECULE
O=c1nc[nH]c2cn[nH]c12
 14 15 0 0 0
SMALL
GASTEIGER
Energy = 0

@<TRIPOS>ATOM
      1 O          -0.4949   -1.4463    0.0000 O.2     1  LIG1       -0.2635
      2 C          -0.4949   -0.6213    0.0000 C.ar    1  LIG1        0.2985
      3 N          -1.2094   -0.2088    0.0000 N.ar    1  LIG1       -0.1977
      4 C          -1.2094    0.6162    0.0000 C.ar    1  LIG1        0.0978
      5 N          -0.4949    1.0287    0.0000 N.ar    1  LIG1       -0.3430
      6 C           0.2196    0.6162    0.0000 C.ar    1  LIG1        0.0908
      7 C           0.2196   -0.2088    0.0000 C.ar    1  LIG1        0.1482
      8 N           1.0042   -0.4637    0.0000 N.ar    1  LIG1       -0.2705
      9 N           1.4891    0.2037    0.0000 N.ar    1  LIG1       -0.1795
     10 C           1.0042    0.8712    0.0000 C.ar    1  LIG1        0.0733
     11 H          -2.1633    1.1670    0.0000 H       1  LIG1        0.1028
     12 H          -0.4949    2.1112    0.0000 H       1  LIG1        0.1668
     13 H           1.3387   -1.4932    0.0000 H       1  LIG1        0.1891
     14 H           1.3446    1.9188    0.0000 H       1  LIG1        0.0869
@<TRIPOS>BOND
     1     1     2    2
     2     2     3   ar
     3     3     4   ar
     4     4     5   ar
     5     5     6   ar
     6     6     7   ar
     7     2     7   ar
     8     7     8   ar
     9     8     9   ar
    10     9    10   ar
    11     6    10   ar
    12     4    11    1
    13     5    12    1
    14     8    13    1
    15    10    14    1
