@<TRIPOS>MOLECULE
O=c1ccc2cc[nH]c2[nH]1
 16 17 0 0 0
SMALL
GASTEIGER
Energy = 0

@<TRIPOS>ATOM
      1 O          -1.7410    0.6987    0.0000 O.2     1  LIG1       -0.2679
      2 C          -1.0265    0.2862    0.0000 C.ar    1  LIG1        0.2502
      3 N          -0.3120    0.6987    0.0000 N.ar    1  LIG1       -0.3085
      4 C           0.4024    0.2862    0.0000 C.ar    1  LIG1        0.1186
      5 C           0.4024   -0.5388    0.0000 C.ar    1  LIG1        0.0170
      6 C           1.1870   -0.7937    0.0000 C.ar    1  LIG1       -0.0352
      7 C           1.6720   -0.1263    0.0000 C.ar    1  LIG1        0.0041
      8 N           1.1870    0.5411    0.0000 N.ar    1  LIG1       -0.3472
      9 C          -0.3120   -0.9513    0.0000 C.ar    1  LIG1       -0.0460
     10 C          -1.0265   -0.5388    0.0000 C.ar    1  LIG1        0.0035
     11 H          -0.3120    1.7812    0.0000 H       1  LIG1        0.1703
     12 H           1.5273   -1.8413    0.0000 H       1  LIG1        0.0639
     13 H           2.7735   -0.1263    0.0000 H       1  LIG1        0.0807
     14 H           1.5215    1.5706    0.0000 H       1  LIG1        0.1667
     15 H          -0.3120   -2.0528    0.0000 H       1  LIG1        0.0626
     16 H          -1.9804   -1.0896    0.0000 H       1  LIG1        0.0672
@<TRIPOS>BOND
     1     1     2    2
     2     2     3   ar
     3     3     4   ar
     4     4     5   ar
     5     5     6   ar
     6     6     7   ar
     7     7     8   ar
     8     4     8   ar
     9     5     9   ar
    10     9    10   ar
    11     2    10   ar
    12     3    11    1
    13     6    12    1
    14     7    13    1
    15     8    14    1
    16     9    15    1
    17    10    16    1
