@<TRIPOS>MOLECULE
Cn1c(=O)ncc2ccoc12
 17 18 0 0 0
SMALL
GASTEIGER
Energy = 0

@<TRIPOS>ATOM
      1 C          -0.2882   -1.3967    0.0000 C.3     1  LIG1        0.0195
      2 N          -0.2882   -0.5717    0.0000 N.ar    1  LIG1       -0.2655
      3 C          -1.0027   -0.1592    0.0000 C.ar    1  LIG1        0.3508
      4 O          -1.7172   -0.5717    0.0000 O.2     1  LIG1       -0.2444
      5 N          -1.0027    0.6658    0.0000 N.ar    1  LIG1       -0.2006
      6 C          -0.2882    1.0783    0.0000 C.ar    1  LIG1        0.0453
      7 C           0.4262    0.6658    0.0000 C.ar    1  LIG1        0.0564
      8 C           0.4262   -0.1592    0.0000 C.ar    1  LIG1        0.2130
      9 O           1.2109   -0.4141    0.0000 O.2     1  LIG1       -0.4464
     10 C           1.6958    0.2533    0.0000 C.ar    1  LIG1        0.0951
     11 C           1.2109    0.9208    0.0000 C.ar    1  LIG1       -0.0131
     12 H          -1.3628   -1.7772    0.0000 H       1  LIG1        0.0458
     13 H           0.2703   -1.7914    0.9121 H       1  LIG1        0.0458
     14 H           0.2420   -1.7714   -0.9370 H       1  LIG1        0.0458
     15 H          -0.2882    2.1798    0.0000 H       1  LIG1        0.0839
     16 H           2.7973    0.2533    0.0000 H       1  LIG1        0.1030
     17 H           1.5513    1.9684    0.0000 H       1  LIG1        0.0656
@<TRIPOS>BOND
     1     1     2    1
     2     2     3   ar
     3     3     4    2
     4     3     5   ar
     5     5     6   ar
     6     6     7   ar
     7     7     8   ar
     8     2     8   ar
     9     8     9   ar
    10     9    10   ar
    11    10    11   ar
    12     7    11   ar
    13     1    12    1
    14     1    13    1
    15     1    14    1
    16     6    15    1
    17    10    16    1
    18    11    17    1
