@<TRIPOS>MOLECULE
O=c1cnnc2ccccn12
 16 17 0 0 0
SMALL
GASTEIGER
Energy = 0

@<TRIPOS>ATOM
      1 O           0.6039   -1.4758    0.0000 O.2     1  LIG1       -0.2656
      2 C           0.6039   -0.6508    0.0000 C.ar    1  LIG1        0.2768
      3 C           1.3184   -0.2383    0.0000 C.ar    1  LIG1        0.1147
      4 N           1.3184    0.5867    0.0000 N.ar    1  LIG1       -0.1503
      5 N           0.6039    0.9992    0.0000 N.ar    1  LIG1       -0.1309
      6 C          -0.1106    0.5867    0.0000 C.ar    1  LIG1        0.1624
      7 C          -0.8250    0.9992    0.0000 C.ar    1  LIG1       -0.0169
      8 C          -1.5395    0.5867    0.0000 C.ar    1  LIG1       -0.0569
      9 C          -1.5395   -0.2383    0.0000 C.ar    1  LIG1       -0.0450
     10 C          -0.8250   -0.6508    0.0000 C.ar    1  LIG1        0.0147
     11 N          -0.1106   -0.2383    0.0000 N.ar    1  LIG1       -0.2656
     12 H           2.2723   -0.7891    0.0000 H       1  LIG1        0.0904
     13 H          -0.8250    2.1007    0.0000 H       1  LIG1        0.0655
     14 H          -2.4934    1.1375    0.0000 H       1  LIG1        0.0619
     15 H          -2.4934   -0.7891    0.0000 H       1  LIG1        0.0632
     16 H          -0.8250   -1.7523    0.0000 H       1  LIG1        0.0814
@<TRIPOS>BOND
     1     1     2    2
     2     2     3   ar
     3     3     4   ar
     4     4     5   ar
     5     5     6   ar
     6     6     7   ar
     7     7     8   ar
     8     8     9   ar
     9     9    10   ar
    10    10    11   ar
    11     2    11   ar
    12     6    11   ar
    13     3    12    1
    14     7    13    1
    15     8    14    1
    16     9    15    1
    17    10    16    1
