@<TRIPOS>MOLECULE
c1nnc2ccnnn12
 12 13 0 0 0
SMALL
GASTEIGER
Energy = 0

@<TRIPOS>ATOM
      1 C           1.2801    0.4291    0.0000 C.ar    1  LIG1        0.0551
      2 C           0.5657    0.8416    0.0000 C.ar    1  LIG1        0.0043
      3 C          -0.1488    0.4291    0.0000 C.ar    1  LIG1        0.1806
      4 N          -0.9334    0.6840    0.0000 N.ar    1  LIG1       -0.1281
      5 N          -1.4183    0.0166    0.0000 N.ar    1  LIG1       -0.1356
      6 C          -0.9334   -0.6508    0.0000 C.ar    1  LIG1        0.1437
      7 N          -0.1488   -0.3959    0.0000 N.ar    1  LIG1       -0.1819
      8 N           0.5657   -0.8084    0.0000 N.ar    1  LIG1       -0.0580
      9 N           1.2801   -0.3959    0.0000 N.ar    1  LIG1       -0.1389
     10 H           2.2340    0.9798    0.0000 H       1  LIG1        0.0850
     11 H           0.5657    1.9431    0.0000 H       1  LIG1        0.0671
     12 H          -1.2738   -1.6984    0.0000 H       1  LIG1        0.1067
@<TRIPOS>BOND
     1     1     2   ar
     2     2     3   ar
     3     3     4   ar
     4     4     5   ar
     5     5     6   ar
     6     6     7   ar
     7     3     7   ar
     8     7     8   ar
     9     8     9   ar
    10     1     9   ar
    11     1    10    1
    12     2    11    1
    13     6    12    1
