@<TRIPOS>MOLECULE
Cn1c(=O)cnc2ccncc12
 19 20 0 0 0
SMALL
GASTEIGER
Energy = 0

@<TRIPOS>ATOM
      1 C           0.4363   -1.4304    0.0000 C.3     1  LIG1        0.0154
      2 N           0.4363   -0.6054    0.0000 N.ar    1  LIG1       -0.3073
      3 C           1.1507   -0.1929    0.0000 C.ar    1  LIG1        0.2697
      4 O           1.8652   -0.6054    0.0000 O.2     1  LIG1       -0.2660
      5 C           1.1507    0.6321    0.0000 C.ar    1  LIG1        0.0927
      6 N           0.4363    1.0446    0.0000 N.ar    1  LIG1       -0.2480
      7 C          -0.2782    0.6321    0.0000 C.ar    1  LIG1        0.0904
      8 C          -0.9927    1.0446    0.0000 C.ar    1  LIG1       -0.0162
      9 C          -1.7072    0.6321    0.0000 C.ar    1  LIG1        0.0297
     10 N          -1.7072   -0.1929    0.0000 N.ar    1  LIG1       -0.2611
     11 C          -0.9927   -0.6054    0.0000 C.ar    1  LIG1        0.0532
     12 C          -0.2782   -0.1929    0.0000 C.ar    1  LIG1        0.0883
     13 H           1.5109   -1.8109    0.0000 H       1  LIG1        0.0457
     14 H          -0.1222   -1.8251   -0.9121 H       1  LIG1        0.0457
     15 H          -0.0939   -1.8051    0.9370 H       1  LIG1        0.0457
     16 H           2.1046    1.1828    0.0000 H       1  LIG1        0.0885
     17 H          -0.9927    2.1461    0.0000 H       1  LIG1        0.0655
     18 H          -2.6611    1.1829    0.0000 H       1  LIG1        0.0830
     19 H          -0.9927   -1.7069    0.0000 H       1  LIG1        0.0851
@<TRIPOS>BOND
     1     1     2    1
     2     2     3   ar
     3     3     4    2
     4     3     5   ar
     5     5     6   ar
     6     6     7   ar
     7     7     8   ar
     8     8     9   ar
     9     9    10   ar
    10    10    11   ar
    11    11    12   ar
    12     2    12   ar
    13     7    12   ar
    14     1    13    1
    15     1    14    1
    16     1    15    1
    17     5    16    1
    18     8    17    1
    19     9    18    1
    20    11    19    1
