@<TRIPOS>MOLECULE
O=c1cnc2nc(=O)[nH]cc2[nH]1
 16 17 0 0 0
SMALL
GASTEIGER
Energy = 0

@<TRIPOS>ATOM
      1 O           2.1523    0.8301    0.0000 O.2     1  LIG1       -0.2662
      2 C           1.4379    0.4176    0.0000 C.ar    1  LIG1        0.2675
      3 N           0.7234    0.8301    0.0000 N.ar    1  LIG1       -0.3172
      4 C           0.0089    0.4176    0.0000 C.ar    1  LIG1        0.1031
      5 C          -0.7056    0.8301    0.0000 C.ar    1  LIG1        0.0334
      6 N          -1.4200    0.4176    0.0000 N.ar    1  LIG1       -0.3109
      7 C          -1.4200   -0.4074    0.0000 C.ar    1  LIG1        0.3478
      8 O          -2.1345   -0.8199    0.0000 O.2     1  LIG1       -0.2447
      9 N          -0.7056   -0.8199    0.0000 N.ar    1  LIG1       -0.1719
     10 C           0.0089   -0.4074    0.0000 C.ar    1  LIG1        0.1831
     11 N           0.7234   -0.8199    0.0000 N.ar    1  LIG1       -0.2289
     12 C           1.4379   -0.4074    0.0000 C.ar    1  LIG1        0.0943
     13 H           0.7234    1.9126    0.0000 H       1  LIG1        0.1691
     14 H          -0.7056    1.9316    0.0000 H       1  LIG1        0.0830
     15 H          -2.3575    0.9588    0.0000 H       1  LIG1        0.1699
     16 H           2.3918   -0.9582    0.0000 H       1  LIG1        0.0886
@<TRIPOS>BOND
     1     1     2    2
     2     2     3   ar
     3     3     4   ar
     4     4     5   ar
     5     5     6   ar
     6     6     7   ar
     7     7     8    2
     8     7     9   ar
     9     9    10   ar
    10     4    10   ar
    11    10    11   ar
    12    11    12   ar
    13     2    12   ar
    14     3    13    1
    15     5    14    1
    16     6    15    1
    17    12    16    1
