@<TRIPOS>MOLECULE
c1cc2ncnnc2[nH]1
 13 14 0 0 0
SMALL
GASTEIGER
Energy = 0

@<TRIPOS>ATOM
      1 N           0.9701   -0.6489    0.0000 N.ar    1  LIG1       -0.3432
      2 C           1.4550    0.0186    0.0000 C.ar    1  LIG1        0.0057
      3 C           0.9701    0.6860    0.0000 C.ar    1  LIG1       -0.0166
      4 C           0.1855    0.4311    0.0000 C.ar    1  LIG1        0.1109
      5 N          -0.5290    0.8436    0.0000 N.ar    1  LIG1       -0.2305
      6 C          -1.2435    0.4311    0.0000 C.ar    1  LIG1        0.1390
      7 N          -1.2435   -0.3939    0.0000 N.ar    1  LIG1       -0.1358
      8 N          -0.5290   -0.8064    0.0000 N.ar    1  LIG1       -0.1280
      9 C           0.1855   -0.3939    0.0000 C.ar    1  LIG1        0.1788
     10 H           1.3046   -1.6784    0.0000 H       1  LIG1        0.1669
     11 H           2.5565    0.0186    0.0000 H       1  LIG1        0.0808
     12 H           1.3105    1.7336    0.0000 H       1  LIG1        0.0654
     13 H          -2.1974    0.9819    0.0000 H       1  LIG1        0.1066
@<TRIPOS>BOND
     1     1     2   ar
     2     2     3   ar
     3     3     4   ar
     4     4     5   ar
     5     5     6   ar
     6     6     7   ar
     7     7     8   ar
     8     8     9   ar
     9     1     9   ar
    10     4     9   ar
    11     1    10    1
    12     2    11    1
    13     3    12    1
    14     6    13    1
