@<TRIPOS>MOLECULE
Cn1cc2c(=O)[nH]ncc2n1
 17 18 0 0 0
SMALL
GASTEIGER
Energy = 0

@<TRIPOS>ATOM
      1 C           2.1311   -0.1740    0.0000 C.3     1  LIG1        0.0302
      2 N           1.3061   -0.1740    0.0000 N.ar    1  LIG1       -0.2731
      3 C           0.8212    0.4935    0.0000 C.ar    1  LIG1        0.0382
      4 C           0.0366    0.2385    0.0000 C.ar    1  LIG1        0.0868
      5 C          -0.6779    0.6510    0.0000 C.ar    1  LIG1        0.2754
      6 O          -0.6779    1.4760    0.0000 O.2     1  LIG1       -0.2657
      7 N          -1.3924    0.2385    0.0000 N.ar    1  LIG1       -0.2426
      8 N          -1.3924   -0.5865    0.0000 N.ar    1  LIG1       -0.1772
      9 C          -0.6779   -0.9990    0.0000 C.ar    1  LIG1        0.0756
     10 C           0.0366   -0.5865    0.0000 C.ar    1  LIG1        0.1176
     11 N           0.8212   -0.8414    0.0000 N.ar    1  LIG1       -0.1697
     12 H           2.5116    0.9006    0.0000 H       1  LIG1        0.0473
     13 H           2.5258   -0.7325   -0.9121 H       1  LIG1        0.0473
     14 H           2.5058   -0.7042    0.9370 H       1  LIG1        0.0473
     15 H           1.1616    1.5411    0.0000 H       1  LIG1        0.0834
     16 H          -2.3299    0.7798    0.0000 H       1  LIG1        0.1921
     17 H          -0.6779   -2.1005    0.0000 H       1  LIG1        0.0870
@<TRIPOS>BOND
     1     1     2    1
     2     2     3   ar
     3     3     4   ar
     4     4     5   ar
     5     5     6    2
     6     5     7   ar
     7     7     8   ar
     8     8     9   ar
     9     9    10   ar
    10     4    10   ar
    11    10    11   ar
    12     2    11   ar
    13     1    12    1
    14     1    13    1
    15     1    14    1
    16     3    15    1
    17     7    16    1
    18     9    17    1
