@<TRIPOS>MOLECULE
Cn1cc2scnc2nc1=O
 16 17 0 0 0
SMALL
GASTEIGER
Energy = 0

@<TRIPOS>ATOM
      1 C           1.7462    0.7760    0.0000 C.3     1  LIG1        0.0162
      2 N           1.0317    0.3635    0.0000 N.ar    1  LIG1       -0.3010
      3 C           0.3173    0.7760    0.0000 C.ar    1  LIG1        0.0264
      4 C          -0.3972    0.3635    0.0000 C.ar    1  LIG1        0.0740
      5 S          -1.1818    0.6185    0.0000 S.2     1  LIG1       -0.0723
      6 C          -1.6667   -0.0490    0.0000 C.ar    1  LIG1        0.0677
      7 N          -1.1818   -0.7164    0.0000 N.ar    1  LIG1       -0.2279
      8 C          -0.3972   -0.4615    0.0000 C.ar    1  LIG1        0.1736
      9 N           0.3173   -0.8740    0.0000 N.ar    1  LIG1       -0.1727
     10 C           1.0317   -0.4615    0.0000 C.ar    1  LIG1        0.3501
     11 O           1.7462   -0.8740    0.0000 O.2     1  LIG1       -0.2444
     12 H           1.5385    1.8969    0.0000 H       1  LIG1        0.0457
     13 H           2.3672    0.4897   -0.9121 H       1  LIG1        0.0457
     14 H           2.3359    0.5042    0.9370 H       1  LIG1        0.0457
     15 H           0.3173    1.8775    0.0000 H       1  LIG1        0.0823
     16 H          -2.7682   -0.0490    0.0000 H       1  LIG1        0.0908
@<TRIPOS>BOND
     1     1     2    1
     2     2     3   ar
     3     3     4   ar
     4     4     5   ar
     5     5     6   ar
     6     6     7   ar
     7     7     8   ar
     8     4     8   ar
     9     8     9   ar
    10     9    10   ar
    11     2    10   ar
    12    10    11    2
    13     1    12    1
    14     1    13    1
    15     1    14    1
    16     3    15    1
    17     6    16    1
