@<TRIPOS>MOLECULE
O=c1cc2ccncc2c[nH]1
 17 18 0 0 0
SMALL
GASTEIGER
Energy = 0

@<TRIPOS>ATOM
      1 O           1.8986   -0.7425    0.0000 O.2     1  LIG1       -0.2679
      2 C           1.1842   -0.3300    0.0000 C.ar    1  LIG1        0.2493
      3 N           1.1842    0.4950    0.0000 N.ar    1  LIG1       -0.3285
      4 C           0.4697    0.9075    0.0000 C.ar    1  LIG1        0.0141
      5 C          -0.2448    0.4950    0.0000 C.ar    1  LIG1        0.0164
      6 C          -0.9593    0.9075    0.0000 C.ar    1  LIG1        0.0366
      7 N          -1.6737    0.4950    0.0000 N.ar    1  LIG1       -0.2626
      8 C          -1.6737   -0.3300    0.0000 C.ar    1  LIG1        0.0282
      9 C          -0.9593   -0.7425    0.0000 C.ar    1  LIG1       -0.0357
     10 C          -0.2448   -0.3300    0.0000 C.ar    1  LIG1       -0.0085
     11 C           0.4697   -0.7425    0.0000 C.ar    1  LIG1        0.0106
     12 H           2.1217    1.0363    0.0000 H       1  LIG1        0.1683
     13 H           0.4697    2.0090    0.0000 H       1  LIG1        0.0814
     14 H          -0.9593    2.0090    0.0000 H       1  LIG1        0.0836
     15 H          -2.6276   -0.8807    0.0000 H       1  LIG1        0.0830
     16 H          -0.9593   -1.8440    0.0000 H       1  LIG1        0.0639
     17 H           0.4697   -1.8440    0.0000 H       1  LIG1        0.0678
@<TRIPOS>BOND
     1     1     2    2
     2     2     3   ar
     3     3     4   ar
     4     4     5   ar
     5     5     6   ar
     6     6     7   ar
     7     7     8   ar
     8     8     9   ar
     9     9    10   ar
    10     5    10   ar
    11    10    11   ar
    12     2    11   ar
    13     3    12    1
    14     4    13    1
    15     6    14    1
    16     8    15    1
    17     9    16    1
    18    11    17    1
