@<TRIPOS>MOLECULE
c1nc2[nH]ncn2n1
 11 12 0 0 0
SMALL
GASTEIGER
Energy = 0

@<TRIPOS>ATOM
      1 N           0.7755   -0.6626    0.0000 N.ar    1  LIG1       -0.2433
      2 N           1.2604    0.0048    0.0000 N.ar    1  LIG1       -0.1594
      3 C           0.7755    0.6722    0.0000 C.ar    1  LIG1        0.1413
      4 N          -0.0091    0.4173    0.0000 N.ar    1  LIG1       -0.1844
      5 N          -0.7937    0.6722    0.0000 N.ar    1  LIG1       -0.1509
      6 C          -1.2787    0.0048    0.0000 C.ar    1  LIG1        0.1406
      7 N          -0.7937   -0.6626    0.0000 N.ar    1  LIG1       -0.1978
      8 C          -0.0091   -0.4077    0.0000 C.ar    1  LIG1        0.2485
      9 H           1.1100   -1.6921    0.0000 H       1  LIG1        0.1921
     10 H           1.1159    1.7198    0.0000 H       1  LIG1        0.1067
     11 H          -2.3802    0.0048    0.0000 H       1  LIG1        0.1066
@<TRIPOS>BOND
     1     1     2   ar
     2     2     3   ar
     3     3     4   ar
     4     4     5   ar
     5     5     6   ar
     6     6     7   ar
     7     7     8   ar
     8     1     8   ar
     9     4     8   ar
    10     1     9    1
    11     3    10    1
    12     6    11    1
