@<TRIPOS>MOLECULE
Cn1ccc2[nH]c(=O)[nH]c(=O)c12
 19 20 0 0 0
SMALL
GASTEIGER
Energy = 0

@<TRIPOS>ATOM
      1 C           1.3770   -1.2550    0.0000 C.3     1  LIG1        0.0121
      2 N           1.1220   -0.4704    0.0000 N.ar    1  LIG1       -0.3443
      3 C           1.6070    0.1970    0.0000 C.ar    1  LIG1        0.0070
      4 C           1.1220    0.8645    0.0000 C.ar    1  LIG1       -0.0199
      5 C           0.3374    0.6095    0.0000 C.ar    1  LIG1        0.0736
      6 C           0.3374   -0.2155    0.0000 C.ar    1  LIG1        0.1306
      7 C          -0.3771   -0.6280    0.0000 C.ar    1  LIG1        0.2782
      8 O          -0.3771   -1.4530    0.0000 O.2     1  LIG1       -0.2655
      9 N          -1.0915   -0.2155    0.0000 N.ar    1  LIG1       -0.2734
     10 C          -1.0915    0.6095    0.0000 C.ar    1  LIG1        0.3273
     11 O          -1.8060    1.0220    0.0000 O.2     1  LIG1       -0.2467
     12 N          -0.3771    1.0220    0.0000 N.ar    1  LIG1       -0.3058
     13 H           2.5166   -1.2848    0.0000 H       1  LIG1        0.0456
     14 H           0.9679   -1.8030   -0.9121 H       1  LIG1        0.0456
     15 H           0.9885   -1.7753    0.9370 H       1  LIG1        0.0456
     16 H           2.7085    0.1970    0.0000 H       1  LIG1        0.0810
     17 H           1.4623    1.9121    0.0000 H       1  LIG1        0.0653
     18 H          -2.0290   -0.7567    0.0000 H       1  LIG1        0.1735
     19 H          -0.3771    2.1045    0.0000 H       1  LIG1        0.1704
@<TRIPOS>BOND
     1     1     2    1
     2     2     3   ar
     3     3     4   ar
     4     4     5   ar
     5     5     6   ar
     6     2     6   ar
     7     6     7   ar
     8     7     8    2
     9     7     9   ar
    10     9    10   ar
    11    10    11    2
    12    10    12   ar
    13     5    12   ar
    14     1    13    1
    15     1    14    1
    16     1    15    1
    17     3    16    1
    18     4    17    1
    19     9    18    1
    20    12    19    1
