@<TRIPOS>MOLECULE
c1cc2[nH]ncn2n1
 12 13 0 0 0
SMALL
GASTEIGER
Energy = 0

@<TRIPOS>ATOM
      1 N           0.7603   -0.6754    0.0000 N.ar    1  LIG1       -0.2592
      2 N           1.2452   -0.0079    0.0000 N.ar    1  LIG1       -0.1606
      3 C           0.7603    0.6595    0.0000 C.ar    1  LIG1        0.1398
      4 N          -0.0243    0.4046    0.0000 N.ar    1  LIG1       -0.2025
      5 N          -0.8090    0.6595    0.0000 N.ar    1  LIG1       -0.1720
      6 C          -1.2939   -0.0079    0.0000 C.ar    1  LIG1        0.0519
      7 C          -0.8090   -0.6754    0.0000 C.ar    1  LIG1        0.0019
      8 C          -0.0243   -0.4204    0.0000 C.ar    1  LIG1        0.1516
      9 H           1.0948   -1.7049    0.0000 H       1  LIG1        0.1906
     10 H           1.1007    1.7071    0.0000 H       1  LIG1        0.1066
     11 H          -2.3954   -0.0079    0.0000 H       1  LIG1        0.0848
     12 H          -1.1494   -1.7230    0.0000 H       1  LIG1        0.0670
@<TRIPOS>BOND
     1     1     2   ar
     2     2     3   ar
     3     3     4   ar
     4     4     5   ar
     5     5     6   ar
     6     6     7   ar
     7     7     8   ar
     8     1     8   ar
     9     4     8   ar
    10     1     9    1
    11     3    10    1
    12     6    11    1
    13     7    12    1
