@<TRIPOS>MOLECULE
Cn1cnc2nc(=O)ccn12
 17 18 0 0 0
SMALL
GASTEIGER
Energy = 0

@<TRIPOS>ATOM
      1 C           1.2998   -1.4283    0.0000 C.3     1  LIG1        0.0305
      2 N           1.0448   -0.6437    0.0000 N.ar    1  LIG1       -0.2696
      3 C           1.5298    0.0237    0.0000 C.ar    1  LIG1        0.1146
      4 N           1.0448    0.6912    0.0000 N.ar    1  LIG1       -0.1996
      5 C           0.2602    0.4362    0.0000 C.ar    1  LIG1        0.2544
      6 N          -0.4543    0.8487    0.0000 N.ar    1  LIG1       -0.1717
      7 C          -1.1687    0.4362    0.0000 C.ar    1  LIG1        0.2748
      8 O          -1.8832    0.8487    0.0000 O.2     1  LIG1       -0.2657
      9 C          -1.1687   -0.3888    0.0000 C.ar    1  LIG1        0.0229
     10 C          -0.4543   -0.8013    0.0000 C.ar    1  LIG1        0.0362
     11 N           0.2602   -0.3888    0.0000 N.ar    1  LIG1       -0.2248
     12 H           2.4394   -1.4581    0.0000 H       1  LIG1        0.0473
     13 H           0.8907   -1.9763   -0.9121 H       1  LIG1        0.0473
     14 H           0.9113   -1.9486    0.9370 H       1  LIG1        0.0473
     15 H           2.6313    0.0237    0.0000 H       1  LIG1        0.1044
     16 H          -2.1226   -0.9395    0.0000 H       1  LIG1        0.0687
     17 H          -0.4543   -1.9028    0.0000 H       1  LIG1        0.0832
@<TRIPOS>BOND
     1     1     2    1
     2     2     3   ar
     3     3     4   ar
     4     4     5   ar
     5     5     6   ar
     6     6     7   ar
     7     7     8    2
     8     7     9   ar
     9     9    10   ar
    10    10    11   ar
    11     2    11   ar
    12     5    11   ar
    13     1    12    1
    14     1    13    1
    15     1    14    1
    16     3    15    1
    17     9    16    1
    18    10    17    1
