@<TRIPOS>MOLECULE
c1cn2scnc2n1
 11 12 0 0 0
SMALL
GASTEIGER
Energy = 0

@<TRIPOS>ATOM
      1 S           0.6558   -0.5729    0.0000 S.2     1  LIG1        0.0077
      2 C           1.1407    0.0945    0.0000 C.ar    1  LIG1        0.0855
      3 N           0.6558    0.7620    0.0000 N.ar    1  LIG1       -0.2113
      4 C          -0.1288    0.5070    0.0000 C.ar    1  LIG1        0.2416
      5 N          -0.9135    0.7620    0.0000 N.ar    1  LIG1       -0.2183
      6 C          -1.3984    0.0945    0.0000 C.ar    1  LIG1        0.0486
      7 C          -0.9135   -0.5729    0.0000 C.ar    1  LIG1        0.0385
      8 N          -0.1288   -0.3180    0.0000 N.ar    1  LIG1       -0.2527
      9 H           2.2422    0.0945    0.0000 H       1  LIG1        0.0923
     10 H          -2.4999    0.0945    0.0000 H       1  LIG1        0.0846
     11 H          -1.2539   -1.6205    0.0000 H       1  LIG1        0.0835
@<TRIPOS>BOND
     1     1     2   ar
     2     2     3   ar
     3     3     4   ar
     4     4     5   ar
     5     5     6   ar
     6     6     7   ar
     7     7     8   ar
     8     1     8   ar
     9     4     8   ar
    10     2     9    1
    11     6    10    1
    12     7    11    1
