@<TRIPOS>MOLECULE
O=c1cc2[nH]ccn2c(=O)[nH]1
 16 17 0 0 0
SMALL
GASTEIGER
Energy = 0

@<TRIPOS>ATOM
      1 O           1.7026   -0.9175    0.0000 O.2     1  LIG1       -0.2677
      2 C           0.9881   -0.5050    0.0000 C.ar    1  LIG1        0.2560
      3 N           0.9881    0.3200    0.0000 N.ar    1  LIG1       -0.2746
      4 C           0.2736    0.7325    0.0000 C.ar    1  LIG1        0.3349
      5 O           0.2736    1.5575    0.0000 O.2     1  LIG1       -0.2461
      6 N          -0.4409    0.3200    0.0000 N.ar    1  LIG1       -0.2534
      7 C          -1.2255    0.5749    0.0000 C.ar    1  LIG1        0.0319
      8 C          -1.7104   -0.0925    0.0000 C.ar    1  LIG1        0.0201
      9 N          -1.2255   -0.7599    0.0000 N.ar    1  LIG1       -0.3457
     10 C          -0.4409   -0.5050    0.0000 C.ar    1  LIG1        0.1244
     11 C           0.2736   -0.9175    0.0000 C.ar    1  LIG1        0.0439
     12 H           1.9256    0.8613    0.0000 H       1  LIG1        0.1734
     13 H          -1.5659    1.6225    0.0000 H       1  LIG1        0.0829
     14 H          -2.8119   -0.0925    0.0000 H       1  LIG1        0.0822
     15 H          -1.5600   -1.7894    0.0000 H       1  LIG1        0.1668
     16 H           0.2736   -2.0190    0.0000 H       1  LIG1        0.0708
@<TRIPOS>BOND
     1     1     2    2
     2     2     3   ar
     3     3     4   ar
     4     4     5    2
     5     4     6   ar
     6     6     7   ar
     7     7     8   ar
     8     8     9   ar
     9     9    10   ar
    10     6    10   ar
    11    10    11   ar
    12     2    11   ar
    13     3    12    1
    14     7    13    1
    15     8    14    1
    16     9    15    1
    17    11    16    1
