@<TRIPOS>MOLECULE
Cn1cc2nccnc2cc1=O
 19 20 0 0 0
SMALL
GASTEIGER
Energy = 0

@<TRIPOS>ATOM
      1 C           1.7538    0.8410    0.0000 C.3     1  LIG1        0.0148
      2 N           1.0394    0.4285    0.0000 N.ar    1  LIG1       -0.3161
      3 C           0.3249    0.8410    0.0000 C.ar    1  LIG1        0.0350
      4 C          -0.3896    0.4285    0.0000 C.ar    1  LIG1        0.1054
      5 N          -1.1041    0.8410    0.0000 N.ar    1  LIG1       -0.2505
      6 C          -1.8185    0.4285    0.0000 C.ar    1  LIG1        0.0464
      7 C          -1.8185   -0.3965    0.0000 C.ar    1  LIG1        0.0464
      8 N          -1.1041   -0.8090    0.0000 N.ar    1  LIG1       -0.2517
      9 C          -0.3896   -0.3965    0.0000 C.ar    1  LIG1        0.0957
     10 C           0.3249   -0.8090    0.0000 C.ar    1  LIG1        0.0304
     11 C           1.0394   -0.3965    0.0000 C.ar    1  LIG1        0.2532
     12 O           1.7538   -0.8090    0.0000 O.2     1  LIG1       -0.2676
     13 H           1.5460    1.9619    0.0000 H       1  LIG1        0.0457
     14 H           2.3748    0.5547   -0.9121 H       1  LIG1        0.0457
     15 H           2.3435    0.5692    0.9370 H       1  LIG1        0.0457
     16 H           0.3249    1.9425    0.0000 H       1  LIG1        0.0832
     17 H          -2.7724    0.9792    0.0000 H       1  LIG1        0.0845
     18 H          -2.7724   -0.9472    0.0000 H       1  LIG1        0.0845
     19 H           0.3249   -1.9105    0.0000 H       1  LIG1        0.0694
@<TRIPOS>BOND
     1     1     2    1
     2     2     3   ar
     3     3     4   ar
     4     4     5   ar
     5     5     6   ar
     6     6     7   ar
     7     7     8   ar
     8     8     9   ar
     9     4     9   ar
    10     9    10   ar
    11    10    11   ar
    12     2    11   ar
    13    11    12    2
    14     1    13    1
    15     1    14    1
    16     1    15    1
    17     3    16    1
    18     6    17    1
    19     7    18    1
    20    10    19    1
