@<TRIPOS>MOLECULE
Cn1cnc2cc(=O)[nH]c2c1
 18 19 0 0 0
SMALL
GASTEIGER
Energy = 0

@<TRIPOS>ATOM
      1 C           2.0566   -0.7517    0.0000 C.3     1  LIG1        0.0127
      2 N           1.3421   -0.3392    0.0000 N.ar    1  LIG1       -0.3393
      3 C           1.3421    0.4858    0.0000 C.ar    1  LIG1        0.0964
      4 N           0.6277    0.8983    0.0000 N.ar    1  LIG1       -0.2355
      5 C          -0.0868    0.4858    0.0000 C.ar    1  LIG1        0.0954
      6 C          -0.8714    0.7408    0.0000 C.ar    1  LIG1        0.0302
      7 C          -1.3564    0.0733    0.0000 C.ar    1  LIG1        0.2513
      8 O          -2.1814    0.0733    0.0000 O.2     1  LIG1       -0.2678
      9 N          -0.8714   -0.5941    0.0000 N.ar    1  LIG1       -0.3197
     10 C          -0.0868   -0.3392    0.0000 C.ar    1  LIG1        0.0841
     11 C           0.6277   -0.7517    0.0000 C.ar    1  LIG1        0.0311
     12 H           2.9234   -0.0113    0.0000 H       1  LIG1        0.0456
     13 H           2.1192   -1.4327   -0.9121 H       1  LIG1        0.0456
     14 H           2.1160   -1.3983    0.9370 H       1  LIG1        0.0456
     15 H           2.2960    1.0365    0.0000 H       1  LIG1        0.1029
     16 H          -1.2117    1.7884    0.0000 H       1  LIG1        0.0694
     17 H          -1.2059   -1.6236    0.0000 H       1  LIG1        0.1690
     18 H           0.6277   -1.8532    0.0000 H       1  LIG1        0.0831
@<TRIPOS>BOND
     1     1     2    1
     2     2     3   ar
     3     3     4   ar
     4     4     5   ar
     5     5     6   ar
     6     6     7   ar
     7     7     8    2
     8     7     9   ar
     9     9    10   ar
    10     5    10   ar
    11    10    11   ar
    12     2    11   ar
    13     1    12    1
    14     1    13    1
    15     1    14    1
    16     3    15    1
    17     6    16    1
    18     9    17    1
    19    11    18    1
