@<TRIPOS>MOLECULE
c1nncc2nnncc12
 13 14 0 0 0
SMALL
GASTEIGER
Energy = 0

@<TRIPOS>ATOM
      1 C           0.7254   -0.8377    0.0000 C.ar    1  LIG1        0.0607
      2 N           1.4399   -0.4252    0.0000 N.ar    1  LIG1       -0.1569
      3 N           1.4399    0.3998    0.0000 N.ar    1  LIG1       -0.1555
      4 C           0.7254    0.8123    0.0000 C.ar    1  LIG1        0.0777
      5 C           0.0110    0.3998    0.0000 C.ar    1  LIG1        0.1177
      6 N          -0.7035    0.8123    0.0000 N.ar    1  LIG1       -0.1277
      7 N          -1.4180    0.3998    0.0000 N.ar    1  LIG1       -0.0427
      8 N          -1.4180   -0.4252    0.0000 N.ar    1  LIG1       -0.1371
      9 C          -0.7035   -0.8377    0.0000 C.ar    1  LIG1        0.0624
     10 C           0.0110   -0.4252    0.0000 C.ar    1  LIG1        0.0433
     11 H           0.7254   -1.9392    0.0000 H       1  LIG1        0.0855
     12 H           0.7254    1.9138    0.0000 H       1  LIG1        0.0870
     13 H          -0.7035   -1.9392    0.0000 H       1  LIG1        0.0856
@<TRIPOS>BOND
     1     1     2   ar
     2     2     3   ar
     3     3     4   ar
     4     4     5   ar
     5     5     6   ar
     6     6     7   ar
     7     7     8   ar
     8     8     9   ar
     9     9    10   ar
    10     1    10   ar
    11     5    10   ar
    12     1    11    1
    13     4    12    1
    14     9    13    1
