@<TRIPOS>MOLECULE
Cn1cnc2ncsc2c1=O
 16 17 0 0 0
SMALL
GASTEIGER
Energy = 0

@<TRIPOS>ATOM
      1 C          -1.8872   -0.5318    0.0000 C.3     1  LIG1        0.0161
      2 N          -1.1727   -0.1193    0.0000 N.ar    1  LIG1       -0.3013
      3 C          -1.1727    0.7057    0.0000 C.ar    1  LIG1        0.1007
      4 N          -0.4583    1.1182    0.0000 N.ar    1  LIG1       -0.2170
      5 C           0.2562    0.7057    0.0000 C.ar    1  LIG1        0.1737
      6 C           0.2562   -0.1193    0.0000 C.ar    1  LIG1        0.1221
      7 S           1.0408   -0.3743    0.0000 S.2     1  LIG1       -0.0685
      8 C           1.5257    0.2932    0.0000 C.ar    1  LIG1        0.0678
      9 N           1.0408    0.9606    0.0000 N.ar    1  LIG1       -0.2279
     10 C          -0.4583   -0.5318    0.0000 C.ar    1  LIG1        0.2696
     11 O          -0.4583   -1.3568    0.0000 O.2     1  LIG1       -0.2663
     12 H          -2.7540    0.2086    0.0000 H       1  LIG1        0.0457
     13 H          -1.9498   -1.2128    0.9121 H       1  LIG1        0.0457
     14 H          -1.9466   -1.1784   -0.9370 H       1  LIG1        0.0457
     15 H          -2.1266    1.2564    0.0000 H       1  LIG1        0.1030
     16 H           2.6272    0.2932    0.0000 H       1  LIG1        0.0908
@<TRIPOS>BOND
     1     1     2    1
     2     2     3   ar
     3     3     4   ar
     4     4     5   ar
     5     5     6   ar
     6     6     7   ar
     7     7     8   ar
     8     8     9   ar
     9     5     9   ar
    10     6    10   ar
    11     2    10   ar
    12    10    11    2
    13     1    12    1
    14     1    13    1
    15     1    14    1
    16     3    15    1
    17     8    16    1
