@<TRIPOS>MOLECULE
Cn1cnc(=O)c2conc12
 16 17 0 0 0
SMALL
GASTEIGER
Energy = 0

@<TRIPOS>ATOM
      1 C           0.4745   -1.6803    0.0000 C.3     1  LIG1        0.0147
      2 N           0.4745   -0.8553    0.0000 N.ar    1  LIG1       -0.3165
      3 C           1.1890   -0.4428    0.0000 C.ar    1  LIG1        0.1012
      4 N           1.1890    0.3822    0.0000 N.ar    1  LIG1       -0.1987
      5 C           0.4745    0.7947    0.0000 C.ar    1  LIG1        0.2854
      6 O           0.4745    1.6197    0.0000 O.2     1  LIG1       -0.2650
      7 C          -0.2400    0.3822    0.0000 C.ar    1  LIG1        0.1241
      8 C          -1.0246    0.6371    0.0000 C.ar    1  LIG1        0.1388
      9 O          -1.5095   -0.0303    0.0000 O.2     1  LIG1       -0.3601
     10 N          -1.0246   -0.6977    0.0000 N.ar    1  LIG1       -0.0597
     11 C          -0.2400   -0.4428    0.0000 C.ar    1  LIG1        0.1893
     12 H           1.5491   -2.0608    0.0000 H       1  LIG1        0.0457
     13 H          -0.0840   -2.0750   -0.9121 H       1  LIG1        0.0457
     14 H          -0.0557   -2.0550    0.9370 H       1  LIG1        0.0457
     15 H           2.1429   -0.9936    0.0000 H       1  LIG1        0.1030
     16 H          -1.3650    1.6847    0.0000 H       1  LIG1        0.1066
@<TRIPOS>BOND
     1     1     2    1
     2     2     3   ar
     3     3     4   ar
     4     4     5   ar
     5     5     6    2
     6     5     7   ar
     7     7     8   ar
     8     8     9   ar
     9     9    10   ar
    10    10    11   ar
    11     2    11   ar
    12     7    11   ar
    13     1    12    1
    14     1    13    1
    15     1    14    1
    16     3    15    1
    17     8    16    1
