@<TRIPOS>MOLECULE
O=c1ccc2oncc2[nH]1
 14 15 0 0 0
SMALL
GASTEIGER
Energy = 0

@<TRIPOS>ATOM
      1 O          -1.7842    0.7328    0.0000 O.2     1  LIG1       -0.2679
      2 C          -1.0697    0.3203    0.0000 C.ar    1  LIG1        0.2494
      3 N          -0.3552    0.7328    0.0000 N.ar    1  LIG1       -0.3183
      4 C           0.3592    0.3203    0.0000 C.ar    1  LIG1        0.1088
      5 C           0.3592   -0.5047    0.0000 C.ar    1  LIG1        0.1835
      6 O           1.1439   -0.7597    0.0000 O.2     1  LIG1       -0.3531
      7 N           1.6288   -0.0922    0.0000 N.ar    1  LIG1       -0.0840
      8 C           1.1439    0.5752    0.0000 C.ar    1  LIG1        0.0941
      9 C          -0.3552   -0.9172    0.0000 C.ar    1  LIG1       -0.0095
     10 C          -1.0697   -0.5047    0.0000 C.ar    1  LIG1        0.0064
     11 H          -0.3552    1.8153    0.0000 H       1  LIG1        0.1690
     12 H           1.4843    1.6228    0.0000 H       1  LIG1        0.0885
     13 H          -0.3552   -2.0187    0.0000 H       1  LIG1        0.0657
     14 H          -2.0236   -1.0555    0.0000 H       1  LIG1        0.0673
@<TRIPOS>BOND
     1     1     2    2
     2     2     3   ar
     3     3     4   ar
     4     4     5   ar
     5     5     6   ar
     6     6     7   ar
     7     7     8   ar
     8     4     8   ar
     9     5     9   ar
    10     9    10   ar
    11     2    10   ar
    12     3    11    1
    13     8    12    1
    14     9    13    1
    15    10    14    1
