@<TRIPOS>MOLECULE
Cn1c(=O)ccc2n[nH]cc12
 18 19 0 0 0
SMALL
GASTEIGER
Energy = 0

@<TRIPOS>ATOM
      1 C           0.3092   -1.4154    0.0000 C.3     1  LIG1        0.0154
      2 N           0.3092   -0.5904    0.0000 N.ar    1  LIG1       -0.3085
      3 C           1.0236   -0.1779    0.0000 C.ar    1  LIG1        0.2516
      4 O           1.7381   -0.5904    0.0000 O.2     1  LIG1       -0.2677
      5 C           1.0236    0.6471    0.0000 C.ar    1  LIG1        0.0051
      6 C           0.3092    1.0596    0.0000 C.ar    1  LIG1       -0.0274
      7 C          -0.4053    0.6471    0.0000 C.ar    1  LIG1        0.1090
      8 N          -1.1899    0.9020    0.0000 N.ar    1  LIG1       -0.1724
      9 N          -1.6749    0.2346    0.0000 N.ar    1  LIG1       -0.2821
     10 C          -1.1899   -0.4329    0.0000 C.ar    1  LIG1        0.0465
     11 C          -0.4053   -0.1779    0.0000 C.ar    1  LIG1        0.0893
     12 H           1.3838   -1.7959    0.0000 H       1  LIG1        0.0457
     13 H          -0.2493   -1.8101   -0.9121 H       1  LIG1        0.0457
     14 H          -0.2210   -1.7901    0.9370 H       1  LIG1        0.0457
     15 H           1.9775    1.1978    0.0000 H       1  LIG1        0.0672
     16 H           0.3092    2.1611    0.0000 H       1  LIG1        0.0642
     17 H          -2.7574    0.2346    0.0000 H       1  LIG1        0.1883
     18 H          -1.5302   -1.4805    0.0000 H       1  LIG1        0.0845
@<TRIPOS>BOND
     1     1     2    1
     2     2     3   ar
     3     3     4    2
     4     3     5   ar
     5     5     6   ar
     6     6     7   ar
     7     7     8   ar
     8     8     9   ar
     9     9    10   ar
    10    10    11   ar
    11     2    11   ar
    12     7    11   ar
    13     1    12    1
    14     1    13    1
    15     1    14    1
    16     5    15    1
    17     6    16    1
    18     9    17    1
    19    10    18    1
