@<TRIPOS>MOLECULE
O=c1cc2cnc(=O)[nH]c2c[nH]1
 17 18 0 0 0
SMALL
GASTEIGER
Energy = 0

@<TRIPOS>ATOM
      1 O           2.1524   -0.8354    0.0000 O.2     1  LIG1       -0.2679
      2 C           1.4380   -0.4229    0.0000 C.ar    1  LIG1        0.2494
      3 N           1.4380    0.4021    0.0000 N.ar    1  LIG1       -0.3271
      4 C           0.7235    0.8146    0.0000 C.ar    1  LIG1        0.0290
      5 C           0.0090    0.4021    0.0000 C.ar    1  LIG1        0.0682
      6 N          -0.7055    0.8146    0.0000 N.ar    1  LIG1       -0.3046
      7 C          -1.4199    0.4021    0.0000 C.ar    1  LIG1        0.3463
      8 O          -2.1344    0.8146    0.0000 O.2     1  LIG1       -0.2447
      9 N          -1.4199   -0.4229    0.0000 N.ar    1  LIG1       -0.2009
     10 C          -0.7055   -0.8354    0.0000 C.ar    1  LIG1        0.0423
     11 C           0.0090   -0.4229    0.0000 C.ar    1  LIG1        0.0232
     12 C           0.7235   -0.8354    0.0000 C.ar    1  LIG1        0.0133
     13 H           2.3755    0.9434    0.0000 H       1  LIG1        0.1684
     14 H           0.7235    1.9161    0.0000 H       1  LIG1        0.0829
     15 H          -0.7055    1.8971    0.0000 H       1  LIG1        0.1705
     16 H          -0.7055   -1.9369    0.0000 H       1  LIG1        0.0838
     17 H           0.7235   -1.9369    0.0000 H       1  LIG1        0.0679
@<TRIPOS>BOND
     1     1     2    2
     2     2     3   ar
     3     3     4   ar
     4     4     5   ar
     5     5     6   ar
     6     6     7   ar
     7     7     8    2
     8     7     9   ar
     9     9    10   ar
    10    10    11   ar
    11     5    11   ar
    12    11    12   ar
    13     2    12   ar
    14     3    13    1
    15     4    14    1
    16     6    15    1
    17    10    16    1
    18    12    17    1
