@<TRIPOS>MOLECULE
O=c1[nH]c(=O)c2cccn2[nH]1
 16 17 0 0 0
SMALL
GASTEIGER
Energy = 0

@<TRIPOS>ATOM
      1 O           1.6821    0.9041    0.0000 O.2     1  LIG1       -0.2452
      2 C           0.9676    0.4916    0.0000 C.ar    1  LIG1        0.3417
      3 N           0.2531    0.9041    0.0000 N.ar    1  LIG1       -0.2441
      4 N          -0.4613    0.4916    0.0000 N.ar    1  LIG1       -0.2532
      5 C          -1.2460    0.7465    0.0000 C.ar    1  LIG1        0.0281
      6 C          -1.7309    0.0791    0.0000 C.ar    1  LIG1       -0.0415
      7 C          -1.2460   -0.5884    0.0000 C.ar    1  LIG1       -0.0296
      8 C          -0.4613   -0.3334    0.0000 C.ar    1  LIG1        0.1276
      9 C           0.2531   -0.7459    0.0000 C.ar    1  LIG1        0.2780
     10 O           0.2531   -1.5709    0.0000 O.2     1  LIG1       -0.2655
     11 N           0.9676   -0.3334    0.0000 N.ar    1  LIG1       -0.2723
     12 H           0.2531    1.9866    0.0000 H       1  LIG1        0.1920
     13 H          -1.5864    1.7941    0.0000 H       1  LIG1        0.0829
     14 H          -2.8324    0.0791    0.0000 H       1  LIG1        0.0633
     15 H          -1.5864   -1.6360    0.0000 H       1  LIG1        0.0641
     16 H           1.9051   -0.8747    0.0000 H       1  LIG1        0.1735
@<TRIPOS>BOND
     1     1     2    2
     2     2     3   ar
     3     3     4   ar
     4     4     5   ar
     5     5     6   ar
     6     6     7   ar
     7     7     8   ar
     8     4     8   ar
     9     8     9   ar
    10     9    10    2
    11     9    11   ar
    12     2    11   ar
    13     3    12    1
    14     5    13    1
    15     6    14    1
    16     7    15    1
    17    11    16    1
