@<TRIPOS>MOLECULE
O=c1[nH]c2cccnc2o1
 14 15 0 0 0
SMALL
GASTEIGER
Energy = 0

@<TRIPOS>ATOM
      1 O           1.9477    0.0225    0.0000 O.2     1  LIG1       -0.2228
      2 C           1.1227    0.0225    0.0000 C.ar    1  LIG1        0.4199
      3 N           0.6378    0.6900    0.0000 N.ar    1  LIG1       -0.2866
      4 C          -0.1468    0.4350    0.0000 C.ar    1  LIG1        0.1072
      5 C          -0.8613    0.8475    0.0000 C.ar    1  LIG1       -0.0315
      6 C          -1.5757    0.4350    0.0000 C.ar    1  LIG1       -0.0414
      7 C          -1.5757   -0.3900    0.0000 C.ar    1  LIG1        0.0315
      8 N          -0.8613   -0.8025    0.0000 N.ar    1  LIG1       -0.2191
      9 C          -0.1468   -0.3900    0.0000 C.ar    1  LIG1        0.2491
     10 O           0.6378   -0.6449    0.0000 O.2     1  LIG1       -0.3888
     11 H           0.9723    1.7195    0.0000 H       1  LIG1        0.1722
     12 H          -0.8613    1.9490    0.0000 H       1  LIG1        0.0640
     13 H          -2.5296    0.9857    0.0000 H       1  LIG1        0.0633
     14 H          -2.5296   -0.9407    0.0000 H       1  LIG1        0.0831
@<TRIPOS>BOND
     1     1     2    2
     2     2     3   ar
     3     3     4   ar
     4     4     5   ar
     5     5     6   ar
     6     6     7   ar
     7     7     8   ar
     8     8     9   ar
     9     4     9   ar
    10     9    10   ar
    11     2    10   ar
    12     3    11    1
    13     5    12    1
    14     6    13    1
    15     7    14    1
