@<TRIPOS>MOLECULE
O=c1cc2sccn2cn1
 14 15 0 0 0
SMALL
GASTEIGER
Energy = 0

@<TRIPOS>ATOM
      1 O           1.8815    0.6567    0.0000 O.2     1  LIG1       -0.2658
      2 C           1.1670    0.2442    0.0000 C.ar    1  LIG1        0.2740
      3 C           0.4526    0.6567    0.0000 C.ar    1  LIG1        0.0354
      4 C          -0.2619    0.2442    0.0000 C.ar    1  LIG1        0.0905
      5 S          -1.0465    0.4991    0.0000 S.2     1  LIG1       -0.0775
      6 C          -1.5315   -0.1683    0.0000 C.ar    1  LIG1       -0.0058
      7 C          -1.0465   -0.8358    0.0000 C.ar    1  LIG1        0.0182
      8 N          -0.2619   -0.5808    0.0000 N.ar    1  LIG1       -0.3006
      9 C           0.4526   -0.9933    0.0000 C.ar    1  LIG1        0.1047
     10 N           1.1670   -0.5808    0.0000 N.ar    1  LIG1       -0.1990
     11 H           0.4526    1.7582    0.0000 H       1  LIG1        0.0699
     12 H          -2.6330   -0.1683    0.0000 H       1  LIG1        0.0709
     13 H          -1.3868   -1.8834    0.0000 H       1  LIG1        0.0818
     14 H           0.4526   -2.0948    0.0000 H       1  LIG1        0.1033
@<TRIPOS>BOND
     1     1     2    2
     2     2     3   ar
     3     3     4   ar
     4     4     5   ar
     5     5     6   ar
     6     6     7   ar
     7     7     8   ar
     8     4     8   ar
     9     8     9   ar
    10     9    10   ar
    11     2    10   ar
    12     3    11    1
    13     6    12    1
    14     7    13    1
    15     9    14    1
