@<TRIPOS>MOLECULE
O=c1[nH][nH]c2ccoc12
 13 14 0 0 0
SMALL
GASTEIGER
Energy = 0

@<TRIPOS>ATOM
      1 O           0.8929   -1.2475    0.0000 O.2     1  LIG1       -0.2624
      2 C           0.6380   -0.4629    0.0000 C.ar    1  LIG1        0.3075
      3 N           1.1229    0.2046    0.0000 N.ar    1  LIG1       -0.2625
      4 N           0.6380    0.8720    0.0000 N.ar    1  LIG1       -0.2935
      5 C          -0.1466    0.6171    0.0000 C.ar    1  LIG1        0.1057
      6 C          -0.1466   -0.2079    0.0000 C.ar    1  LIG1        0.2174
      7 O          -0.9312   -0.4629    0.0000 O.2     1  LIG1       -0.4558
      8 C          -1.4162    0.2046    0.0000 C.ar    1  LIG1        0.0949
      9 C          -0.9312    0.8720    0.0000 C.ar    1  LIG1        0.0017
     10 H           2.2054    0.2046    0.0000 H       1  LIG1        0.1900
     11 H           0.9725    1.9015    0.0000 H       1  LIG1        0.1869
     12 H          -2.5177    0.2046    0.0000 H       1  LIG1        0.1030
     13 H          -1.2715    1.9196    0.0000 H       1  LIG1        0.0670
@<TRIPOS>BOND
     1     1     2    2
     2     2     3   ar
     3     3     4   ar
     4     4     5   ar
     5     5     6   ar
     6     2     6   ar
     7     6     7   ar
     8     7     8   ar
     9     8     9   ar
    10     5     9   ar
    11     3    10    1
    12     4    11    1
    13     8    12    1
    14     9    13    1
