@<TRIPOS>MOLECULE
c1ncn2cnccc12
 14 15 0 0 0
SMALL
GASTEIGER
Energy = 0

@<TRIPOS>ATOM
      1 C           1.2737    0.4269    0.0000 C.ar    1  LIG1        0.0313
      2 C           0.5592    0.8394    0.0000 C.ar    1  LIG1       -0.0181
      3 C          -0.1552    0.4269    0.0000 C.ar    1  LIG1        0.0683
      4 C          -0.9399    0.6819    0.0000 C.ar    1  LIG1        0.0532
      5 N          -1.4248    0.0144    0.0000 N.ar    1  LIG1       -0.2431
      6 C          -0.9399   -0.6530    0.0000 C.ar    1  LIG1        0.1015
      7 N          -0.1552   -0.3981    0.0000 N.ar    1  LIG1       -0.2895
      8 C           0.5592   -0.8106    0.0000 C.ar    1  LIG1        0.1014
      9 N           1.2737   -0.3981    0.0000 N.ar    1  LIG1       -0.2451
     10 H           2.2276    0.9777    0.0000 H       1  LIG1        0.0831
     11 H           0.5592    1.9409    0.0000 H       1  LIG1        0.0654
     12 H          -1.2803    1.7295    0.0000 H       1  LIG1        0.0851
     13 H          -1.2803   -1.7006    0.0000 H       1  LIG1        0.1032
     14 H           0.5592   -1.9121    0.0000 H       1  LIG1        0.1032
@<TRIPOS>BOND
     1     1     2   ar
     2     2     3   ar
     3     3     4   ar
     4     4     5   ar
     5     5     6   ar
     6     6     7   ar
     7     3     7   ar
     8     7     8   ar
     9     8     9   ar
    10     1     9   ar
    11     1    10    1
    12     2    11    1
    13     4    12    1
    14     6    13    1
    15     8    14    1
