@<TRIPOS>MOLECULE
Cn1c(=O)ncc2nc[nH]c12
 17 18 0 0 0
SMALL
GASTEIGER
Energy = 0

@<TRIPOS>ATOM
      1 C          -0.2883   -1.4151    0.0000 C.3     1  LIG1        0.0181
      2 N          -0.2883   -0.5901    0.0000 N.ar    1  LIG1       -0.2798
      3 C          -1.0027   -0.1776    0.0000 C.ar    1  LIG1        0.3497
      4 O          -1.7172   -0.5901    0.0000 O.2     1  LIG1       -0.2445
      5 N          -1.0027    0.6474    0.0000 N.ar    1  LIG1       -0.1991
      6 C          -0.2883    1.0599    0.0000 C.ar    1  LIG1        0.0619
      7 C           0.4262    0.6474    0.0000 C.ar    1  LIG1        0.1242
      8 C           0.4262   -0.1776    0.0000 C.ar    1  LIG1        0.1434
      9 N           1.2108   -0.4326    0.0000 N.ar    1  LIG1       -0.3305
     10 C           1.6958    0.2349    0.0000 C.ar    1  LIG1        0.0956
     11 N           1.2108    0.9023    0.0000 N.ar    1  LIG1       -0.2328
     12 H          -1.3629   -1.7956    0.0000 H       1  LIG1        0.0458
     13 H           0.2702   -1.8098    0.9121 H       1  LIG1        0.0458
     14 H           0.2419   -1.7898   -0.9370 H       1  LIG1        0.0458
     15 H          -0.2883    2.1614    0.0000 H       1  LIG1        0.0854
     16 H           1.5453   -1.4621    0.0000 H       1  LIG1        0.1682
     17 H           2.7973    0.2349    0.0000 H       1  LIG1        0.1027
@<TRIPOS>BOND
     1     1     2    1
     2     2     3   ar
     3     3     4    2
     4     3     5   ar
     5     5     6   ar
     6     6     7   ar
     7     7     8   ar
     8     2     8   ar
     9     8     9   ar
    10     9    10   ar
    11    10    11   ar
    12     7    11   ar
    13     1    12    1
    14     1    13    1
    15     1    14    1
    16     6    15    1
    17     9    16    1
    18    10    17    1
