@<TRIPOS>MOLECULE
Cn1cncn1
 11 11 0 0 0
SMALL
GASTEIGER
Energy = 0

@<TRIPOS>ATOM
      1 C          -1.2829   -0.0065    0.0000 C.3     1  LIG1        0.0319
      2 N          -0.4579   -0.0065    0.0000 N.ar    1  LIG1       -0.2551
      3 C           0.0271   -0.6740    0.0000 C.ar    1  LIG1        0.1139
      4 N           0.8117   -0.4190    0.0000 N.ar    1  LIG1       -0.2228
      5 C           0.8117    0.4060    0.0000 C.ar    1  LIG1        0.1379
      6 N           0.0271    0.6609    0.0000 N.ar    1  LIG1       -0.1587
      7 H          -1.6634   -1.0811    0.0000 H       1  LIG1        0.0473
      8 H          -1.6776    0.5520   -0.9121 H       1  LIG1        0.0473
      9 H          -1.6576    0.5237    0.9370 H       1  LIG1        0.0473
     10 H          -0.3132   -1.7216    0.0000 H       1  LIG1        0.1043
     11 H           1.7028    1.0535    0.0000 H       1  LIG1        0.1065
@<TRIPOS>BOND
     1     1     2    1
     2     2     3   ar
     3     3     4   ar
     4     4     5   ar
     5     5     6   ar
     6     2     6   ar
     7     1     7    1
     8     1     8    1
     9     1     9    1
    10     3    10    1
    11     5    11    1
