@<TRIPOS>MOLECULE
c1cc2ocnc2[nH]1
 12 13 0 0 0
SMALL
GASTEIGER
Energy = 0

@<TRIPOS>ATOM
      1 N           0.8147   -0.6674    0.0000 N.ar    1  LIG1       -0.3432
      2 C           1.2996    0.0000    0.0000 C.ar    1  LIG1        0.0072
      3 C           0.8147    0.6675    0.0000 C.ar    1  LIG1        0.0003
      4 C           0.0301    0.4125    0.0000 C.ar    1  LIG1        0.1732
      5 C           0.0301   -0.4125    0.0000 C.ar    1  LIG1        0.1769
      6 N          -0.7545   -0.6674    0.0000 N.ar    1  LIG1       -0.1983
      7 C          -1.2395    0.0000    0.0000 C.ar    1  LIG1        0.1846
      8 O          -0.7545    0.6675    0.0000 O.2     1  LIG1       -0.4408
      9 H           1.1492   -1.6969    0.0000 H       1  LIG1        0.1669
     10 H           2.4011   -0.0000    0.0000 H       1  LIG1        0.0808
     11 H           1.1551    1.7151    0.0000 H       1  LIG1        0.0670
     12 H          -2.3410   -0.0000    0.0000 H       1  LIG1        0.1255
@<TRIPOS>BOND
     1     1     2   ar
     2     2     3   ar
     3     3     4   ar
     4     4     5   ar
     5     1     5   ar
     6     5     6   ar
     7     6     7   ar
     8     7     8   ar
     9     4     8   ar
    10     1     9    1
    11     2    10    1
    12     3    11    1
    13     7    12    1
