@<TRIPOS>MOLECULE
Cn1ncc2nccnc12
 16 17 0 0 0
SMALL
GASTEIGER
Energy = 0

@<TRIPOS>ATOM
      1 C           1.0681   -1.3055    0.0000 C.3     1  LIG1        0.0325
      2 N           0.8132   -0.5209    0.0000 N.ar    1  LIG1       -0.2483
      3 N           1.2981    0.1466    0.0000 N.ar    1  LIG1       -0.1758
      4 C           0.8132    0.8140    0.0000 C.ar    1  LIG1        0.0769
      5 C           0.0286    0.5591    0.0000 C.ar    1  LIG1        0.1272
      6 N          -0.6859    0.9716    0.0000 N.ar    1  LIG1       -0.2488
      7 C          -1.4004    0.5591    0.0000 C.ar    1  LIG1        0.0465
      8 C          -1.4004   -0.2659    0.0000 C.ar    1  LIG1        0.0481
      9 N          -0.6859   -0.6784    0.0000 N.ar    1  LIG1       -0.2331
     10 C           0.0286   -0.2659    0.0000 C.ar    1  LIG1        0.1767
     11 H           2.2077   -1.3354    0.0000 H       1  LIG1        0.0473
     12 H           0.6589   -1.8534   -0.9121 H       1  LIG1        0.0473
     13 H           0.6796   -1.8257    0.9370 H       1  LIG1        0.0473
     14 H           1.1536    1.8616    0.0000 H       1  LIG1        0.0870
     15 H          -2.3543    1.1099    0.0000 H       1  LIG1        0.0845
     16 H          -2.3543   -0.8167    0.0000 H       1  LIG1        0.0846
@<TRIPOS>BOND
     1     1     2    1
     2     2     3   ar
     3     3     4   ar
     4     4     5   ar
     5     5     6   ar
     6     6     7   ar
     7     7     8   ar
     8     8     9   ar
     9     9    10   ar
    10     2    10   ar
    11     5    10   ar
    12     1    11    1
    13     1    12    1
    14     1    13    1
    15     4    14    1
    16     7    15    1
    17     8    16    1
