@<TRIPOS>MOLECULE
c1cc2cc[nH]cc2n1
 15 16 0 0 0
SMALL
GASTEIGER
Energy = 0

@<TRIPOS>ATOM
      1 N           1.2623   -0.3933    0.0000 N.ar    1  LIG1       -0.3652
      2 C           1.2623    0.4317    0.0000 C.ar    1  LIG1        0.0023
      3 C           0.5478    0.8442    0.0000 C.ar    1  LIG1       -0.0365
      4 C          -0.1666    0.4317    0.0000 C.ar    1  LIG1        0.0045
      5 C          -0.9513    0.6867    0.0000 C.ar    1  LIG1       -0.0343
      6 C          -1.4362    0.0192    0.0000 C.ar    1  LIG1        0.0289
      7 N          -0.9513   -0.6482    0.0000 N.ar    1  LIG1       -0.2535
      8 C          -0.1666   -0.3933    0.0000 C.ar    1  LIG1        0.0869
      9 C           0.5478   -0.8058    0.0000 C.ar    1  LIG1        0.0279
     10 H           2.1998   -0.9346    0.0000 H       1  LIG1        0.1648
     11 H           2.2162    0.9825    0.0000 H       1  LIG1        0.0807
     12 H           0.5478    1.9457    0.0000 H       1  LIG1        0.0638
     13 H          -1.2917    1.7343    0.0000 H       1  LIG1        0.0639
     14 H          -2.5377    0.0192    0.0000 H       1  LIG1        0.0830
     15 H           0.5478   -1.9073    0.0000 H       1  LIG1        0.0829
@<TRIPOS>BOND
     1     1     2   ar
     2     2     3   ar
     3     3     4   ar
     4     4     5   ar
     5     5     6   ar
     6     6     7   ar
     7     7     8   ar
     8     4     8   ar
     9     8     9   ar
    10     1     9   ar
    11     1    10    1
    12     2    11    1
    13     3    12    1
    14     5    13    1
    15     6    14    1
    16     9    15    1
