@<TRIPOS>MOLECULE
c1cc2cc[nH]c2[nH]1
 14 15 0 0 0
SMALL
GASTEIGER
Energy = 0

@<TRIPOS>ATOM
      1 N           0.7846   -0.6408    0.0000 N.ar    1  LIG1       -0.3473
      2 C           1.2695    0.0266    0.0000 C.ar    1  LIG1        0.0041
      3 C           0.7846    0.6941    0.0000 C.ar    1  LIG1       -0.0351
      4 C           0.0000    0.4391    0.0000 C.ar    1  LIG1        0.0181
      5 C           0.0000   -0.3859    0.0000 C.ar    1  LIG1        0.1159
      6 N          -0.7846   -0.6408    0.0000 N.ar    1  LIG1       -0.3473
      7 C          -1.2695    0.0266    0.0000 C.ar    1  LIG1        0.0041
      8 C          -0.7846    0.6941    0.0000 C.ar    1  LIG1       -0.0351
      9 H           1.1191   -1.6703    0.0000 H       1  LIG1        0.1667
     10 H           2.3710    0.0266    0.0000 H       1  LIG1        0.0807
     11 H           1.1250    1.7417    0.0000 H       1  LIG1        0.0639
     12 H          -1.1191   -1.6703    0.0000 H       1  LIG1        0.1667
     13 H          -2.3710    0.0266    0.0000 H       1  LIG1        0.0807
     14 H          -1.1250    1.7417    0.0000 H       1  LIG1        0.0639
@<TRIPOS>BOND
     1     1     2   ar
     2     2     3   ar
     3     3     4   ar
     4     4     5   ar
     5     1     5   ar
     6     5     6   ar
     7     6     7   ar
     8     7     8   ar
     9     4     8   ar
    10     1     9    1
    11     2    10    1
    12     3    11    1
    13     6    12    1
    14     7    13    1
    15     8    14    1
