@<TRIPOS>MOLECULE
O=c1cc2cc[nH]cc2cn1
 17 18 0 0 0
SMALL
GASTEIGER
Energy = 0

@<TRIPOS>ATOM
      1 O           1.8986    0.7425    0.0000 O.2     1  LIG1       -0.2659
      2 C           1.1842    0.3300    0.0000 C.ar    1  LIG1        0.2708
      3 C           0.4697    0.7425    0.0000 C.ar    1  LIG1        0.0125
      4 C          -0.2448    0.3300    0.0000 C.ar    1  LIG1       -0.0085
      5 C          -0.9593    0.7425    0.0000 C.ar    1  LIG1       -0.0378
      6 C          -1.6737    0.3300    0.0000 C.ar    1  LIG1        0.0022
      7 N          -1.6737   -0.4950    0.0000 N.ar    1  LIG1       -0.3664
      8 C          -0.9593   -0.9075    0.0000 C.ar    1  LIG1        0.0108
      9 C          -0.2448   -0.4950    0.0000 C.ar    1  LIG1        0.0164
     10 C           0.4697   -0.9075    0.0000 C.ar    1  LIG1        0.0406
     11 N           1.1842   -0.4950    0.0000 N.ar    1  LIG1       -0.2168
     12 H           0.4697    1.8440    0.0000 H       1  LIG1        0.0678
     13 H          -0.9593    1.8440    0.0000 H       1  LIG1        0.0638
     14 H          -2.6276    0.8807    0.0000 H       1  LIG1        0.0807
     15 H          -2.6112   -1.0362    0.0000 H       1  LIG1        0.1648
     16 H          -0.9593   -2.0090    0.0000 H       1  LIG1        0.0813
     17 H           0.4697   -2.0090    0.0000 H       1  LIG1        0.0837
@<TRIPOS>BOND
     1     1     2    2
     2     2     3   ar
     3     3     4   ar
     4     4     5   ar
     5     5     6   ar
     6     6     7   ar
     7     7     8   ar
     8     8     9   ar
     9     4     9   ar
    10     9    10   ar
    11    10    11   ar
    12     2    11   ar
    13     3    12    1
    14     5    13    1
    15     6    14    1
    16     7    15    1
    17     8    16    1
    18    10    17    1
