@<TRIPOS>MOLECULE
Cn1c(=O)ccc2ccccc12
 21 22 0 0 0
SMALL
GASTEIGER
Energy = 0

@<TRIPOS>ATOM
      1 C           0.4194   -1.4191    0.0000 C.3     1  LIG1        0.0153
      2 N           0.4194   -0.5941    0.0000 N.ar    1  LIG1       -0.3112
      3 C           1.1338   -0.1816    0.0000 C.ar    1  LIG1        0.2515
      4 O           1.8483   -0.5941    0.0000 O.2     1  LIG1       -0.2677
      5 C           1.1338    0.6434    0.0000 C.ar    1  LIG1        0.0036
      6 C           0.4194    1.0559    0.0000 C.ar    1  LIG1       -0.0475
      7 C          -0.2951    0.6434    0.0000 C.ar    1  LIG1       -0.0013
      8 C          -1.0096    1.0559    0.0000 C.ar    1  LIG1       -0.0526
      9 C          -1.7241    0.6434    0.0000 C.ar    1  LIG1       -0.0611
     10 C          -1.7241   -0.1816    0.0000 C.ar    1  LIG1       -0.0598
     11 C          -1.0096   -0.5941    0.0000 C.ar    1  LIG1       -0.0375
     12 C          -0.2951   -0.1816    0.0000 C.ar    1  LIG1        0.0517
     13 H           1.4940   -1.7996    0.0000 H       1  LIG1        0.0457
     14 H          -0.1391   -1.8138   -0.9121 H       1  LIG1        0.0457
     15 H          -0.1108   -1.7938    0.9370 H       1  LIG1        0.0457
     16 H           2.0877    1.1941    0.0000 H       1  LIG1        0.0672
     17 H           0.4194    2.1574    0.0000 H       1  LIG1        0.0626
     18 H          -1.0096    2.1574    0.0000 H       1  LIG1        0.0624
     19 H          -2.6780    1.1942    0.0000 H       1  LIG1        0.0618
     20 H          -2.6780   -0.7324    0.0000 H       1  LIG1        0.0618
     21 H          -1.0096   -1.6956    0.0000 H       1  LIG1        0.0638
@<TRIPOS>BOND
     1     1     2    1
     2     2     3   ar
     3     3     4    2
     4     3     5   ar
     5     5     6   ar
     6     6     7   ar
     7     7     8   ar
     8     8     9   ar
     9     9    10   ar
    10    10    11   ar
    11    11    12   ar
    12     2    12   ar
    13     7    12   ar
    14     1    13    1
    15     1    14    1
    16     1    15    1
    17     5    16    1
    18     6    17    1
    19     8    18    1
    20     9    19    1
    21    10    20    1
    22    11    21    1
