@<TRIPOS>MOLECULE
O=c1cc2ccccn2cn1
 17 18 0 0 0
SMALL
GASTEIGER
Energy = 0

@<TRIPOS>ATOM
      1 O           1.8783    0.7425    0.0000 O.2     1  LIG1       -0.2658
      2 C           1.1638    0.3300    0.0000 C.ar    1  LIG1        0.2735
      3 C           0.4493    0.7425    0.0000 C.ar    1  LIG1        0.0286
      4 C          -0.2651    0.3300    0.0000 C.ar    1  LIG1        0.0526
      5 C          -0.9796    0.7425    0.0000 C.ar    1  LIG1       -0.0376
      6 C          -1.6941    0.3300    0.0000 C.ar    1  LIG1       -0.0584
      7 C          -1.6941   -0.4950    0.0000 C.ar    1  LIG1       -0.0451
      8 C          -0.9796   -0.9075    0.0000 C.ar    1  LIG1        0.0112
      9 N          -0.2651   -0.4950    0.0000 N.ar    1  LIG1       -0.3070
     10 C           0.4493   -0.9075    0.0000 C.ar    1  LIG1        0.1043
     11 N           1.1638   -0.4950    0.0000 N.ar    1  LIG1       -0.1990
     12 H           0.4493    1.8440    0.0000 H       1  LIG1        0.0693
     13 H          -0.9796    1.8440    0.0000 H       1  LIG1        0.0638
     14 H          -2.6480    0.8808    0.0000 H       1  LIG1        0.0619
     15 H          -2.6480   -1.0458    0.0000 H       1  LIG1        0.0632
     16 H          -0.9796   -2.0090    0.0000 H       1  LIG1        0.0813
     17 H           0.4493   -2.0090    0.0000 H       1  LIG1        0.1033
@<TRIPOS>BOND
     1     1     2    2
     2     2     3   ar
     3     3     4   ar
     4     4     5   ar
     5     5     6   ar
     6     6     7   ar
     7     7     8   ar
     8     8     9   ar
     9     4     9   ar
    10     9    10   ar
    11    10    11   ar
    12     2    11   ar
    13     3    12    1
    14     5    13    1
    15     6    14    1
    16     7    15    1
    17     8    16    1
    18    10    17    1
