@<TRIPOS>MOLECULE
Cn1ccc(=O)[nH]c1=O
 15 15 0 0 0
SMALL
GASTEIGER
Energy = 0

@<TRIPOS>ATOM
      1 C           0.2023   -1.5880    0.0000 C.3     1  LIG1        0.0161
      2 N           0.2023   -0.7630    0.0000 N.ar    1  LIG1       -0.3035
      3 C           0.9168   -0.3505    0.0000 C.ar    1  LIG1        0.0141
      4 C           0.9168    0.4745    0.0000 C.ar    1  LIG1        0.0191
      5 C           0.2023    0.8870    0.0000 C.ar    1  LIG1        0.2539
      6 O           0.2023    1.7120    0.0000 O.2     1  LIG1       -0.2677
      7 N          -0.5122    0.4745    0.0000 N.ar    1  LIG1       -0.2749
      8 C          -0.5122   -0.3505    0.0000 C.ar    1  LIG1        0.3291
      9 O          -1.2267   -0.7630    0.0000 O.2     1  LIG1       -0.2465
     10 H           1.2769   -1.9685    0.0000 H       1  LIG1        0.0457
     11 H          -0.3562   -1.9827   -0.9121 H       1  LIG1        0.0457
     12 H          -0.3279   -1.9627    0.9370 H       1  LIG1        0.0457
     13 H           1.8707   -0.9013    0.0000 H       1  LIG1        0.0812
     14 H           1.8707    1.0253    0.0000 H       1  LIG1        0.0686
     15 H          -1.4497    1.0158    0.0000 H       1  LIG1        0.1734
@<TRIPOS>BOND
     1     1     2    1
     2     2     3   ar
     3     3     4   ar
     4     4     5   ar
     5     5     6    2
     6     5     7   ar
     7     7     8   ar
     8     2     8   ar
     9     8     9    2
    10     1    10    1
    11     1    11    1
    12     1    12    1
    13     3    13    1
    14     4    14    1
    15     7    15    1
