@<TRIPOS>MOLECULE
O=c1[nH]ccc2ncncc12
 16 17 0 0 0
SMALL
GASTEIGER
Energy = 0

@<TRIPOS>ATOM
      1 O           0.6441   -1.4642    0.0000 O.2     1  LIG1       -0.2671
      2 C           0.6441   -0.6392    0.0000 C.ar    1  LIG1        0.2594
      3 N           1.3585   -0.2267    0.0000 N.ar    1  LIG1       -0.3285
      4 C           1.3585    0.5983    0.0000 C.ar    1  LIG1        0.0070
      5 C           0.6441    1.0108    0.0000 C.ar    1  LIG1       -0.0194
      6 C          -0.0704    0.5983    0.0000 C.ar    1  LIG1        0.0807
      7 N          -0.7849    1.0108    0.0000 N.ar    1  LIG1       -0.2352
      8 C          -1.4994    0.5983    0.0000 C.ar    1  LIG1        0.1166
      9 N          -1.4994   -0.2267    0.0000 N.ar    1  LIG1       -0.2429
     10 C          -0.7849   -0.6392    0.0000 C.ar    1  LIG1        0.0437
     11 C          -0.0704   -0.2267    0.0000 C.ar    1  LIG1        0.0827
     12 H           2.2960   -0.7679    0.0000 H       1  LIG1        0.1683
     13 H           2.3124    1.1490    0.0000 H       1  LIG1        0.0808
     14 H           0.6441    2.1123    0.0000 H       1  LIG1        0.0653
     15 H          -2.4533    1.1491    0.0000 H       1  LIG1        0.1047
     16 H          -0.7849   -1.7407    0.0000 H       1  LIG1        0.0838
@<TRIPOS>BOND
     1     1     2    2
     2     2     3   ar
     3     3     4   ar
     4     4     5   ar
     5     5     6   ar
     6     6     7   ar
     7     7     8   ar
     8     8     9   ar
     9     9    10   ar
    10    10    11   ar
    11     2    11   ar
    12     6    11   ar
    13     3    12    1
    14     4    13    1
    15     5    14    1
    16     8    15    1
    17    10    16    1
