@<TRIPOS>MOLECULE
Cn1c(=O)ccc2ncccc12
 20 21 0 0 0
SMALL
GASTEIGER
Energy = 0

@<TRIPOS>ATOM
      1 C           0.4326   -1.4329    0.0000 C.3     1  LIG1        0.0153
      2 N           0.4326   -0.6079    0.0000 N.ar    1  LIG1       -0.3098
      3 C           1.1471   -0.1954    0.0000 C.ar    1  LIG1        0.2516
      4 O           1.8615   -0.6079    0.0000 O.2     1  LIG1       -0.2677
      5 C           1.1471    0.6296    0.0000 C.ar    1  LIG1        0.0050
      6 C           0.4326    1.0421    0.0000 C.ar    1  LIG1       -0.0292
      7 C          -0.2819    0.6296    0.0000 C.ar    1  LIG1        0.0875
      8 N          -0.9963    1.0421    0.0000 N.ar    1  LIG1       -0.2535
      9 C          -1.7108    0.6296    0.0000 C.ar    1  LIG1        0.0284
     10 C          -1.7108   -0.1954    0.0000 C.ar    1  LIG1       -0.0416
     11 C          -0.9963   -0.6079    0.0000 C.ar    1  LIG1       -0.0346
     12 C          -0.2819   -0.1954    0.0000 C.ar    1  LIG1        0.0700
     13 H           1.5072   -1.8134    0.0000 H       1  LIG1        0.0457
     14 H          -0.1259   -1.8276   -0.9121 H       1  LIG1        0.0457
     15 H          -0.0976   -1.8076    0.9370 H       1  LIG1        0.0457
     16 H           2.1010    1.1804    0.0000 H       1  LIG1        0.0672
     17 H           0.4326    2.1436    0.0000 H       1  LIG1        0.0641
     18 H          -2.6647    1.1804    0.0000 H       1  LIG1        0.0830
     19 H          -2.6647   -0.7462    0.0000 H       1  LIG1        0.0633
     20 H          -0.9963   -1.7094    0.0000 H       1  LIG1        0.0639
@<TRIPOS>BOND
     1     1     2    1
     2     2     3   ar
     3     3     4    2
     4     3     5   ar
     5     5     6   ar
     6     6     7   ar
     7     7     8   ar
     8     8     9   ar
     9     9    10   ar
    10    10    11   ar
    11    11    12   ar
    12     2    12   ar
    13     7    12   ar
    14     1    13    1
    15     1    14    1
    16     1    15    1
    17     5    16    1
    18     6    17    1
    19     9    18    1
    20    10    19    1
    21    11    20    1
