@<TRIPOS>MOLECULE
O=c1ccn2ncoc2c1
 14 15 0 0 0
SMALL
GASTEIGER
Energy = 0

@<TRIPOS>ATOM
      1 O           1.7876   -0.7212    0.0000 O.2     1  LIG1       -0.2877
      2 C           1.0732   -0.3087    0.0000 C.ar    1  LIG1        0.1855
      3 C           1.0732    0.5163    0.0000 C.ar    1  LIG1        0.0035
      4 C           0.3587    0.9288    0.0000 C.ar    1  LIG1        0.0365
      5 N          -0.3558    0.5163    0.0000 N.ar    1  LIG1       -0.2044
      6 N          -1.1404    0.7712    0.0000 N.ar    1  LIG1       -0.1338
      7 C          -1.6253    0.1038    0.0000 C.ar    1  LIG1        0.2030
      8 O          -1.1404   -0.5637    0.0000 O.2     1  LIG1       -0.4249
      9 C          -0.3558   -0.3087    0.0000 C.ar    1  LIG1        0.2267
     10 C           0.3587   -0.7212    0.0000 C.ar    1  LIG1        0.0471
     11 H           2.0271    1.0671    0.0000 H       1  LIG1        0.0671
     12 H           0.3587    2.0303    0.0000 H       1  LIG1        0.0832
     13 H          -2.7268    0.1038    0.0000 H       1  LIG1        0.1272
     14 H           0.3587   -1.8227    0.0000 H       1  LIG1        0.0709
@<TRIPOS>BOND
     1     1     2    2
     2     2     3   ar
     3     3     4   ar
     4     4     5   ar
     5     5     6   ar
     6     6     7   ar
     7     7     8   ar
     8     8     9   ar
     9     5     9   ar
    10     9    10   ar
    11     2    10   ar
    12     3    11    1
    13     4    12    1
    14     7    13    1
    15    10    14    1
