@<TRIPOS>MOLECULE
Cn1c(=O)ccc2[nH]ccc12
 19 20 0 0 0
SMALL
GASTEIGER
Energy = 0

@<TRIPOS>ATOM
      1 C          -0.2853   -1.4121    0.0000 C.3     1  LIG1        0.0153
      2 N          -0.2853   -0.5871    0.0000 N.ar    1  LIG1       -0.3098
      3 C          -0.9998   -0.1746    0.0000 C.ar    1  LIG1        0.2516
      4 O          -1.7142   -0.5871    0.0000 O.2     1  LIG1       -0.2677
      5 C          -0.9998    0.6504    0.0000 C.ar    1  LIG1        0.0049
      6 C          -0.2853    1.0629    0.0000 C.ar    1  LIG1       -0.0312
      7 C           0.4292    0.6504    0.0000 C.ar    1  LIG1        0.0633
      8 C           0.4292   -0.1746    0.0000 C.ar    1  LIG1        0.0693
      9 C           1.2138   -0.4295    0.0000 C.ar    1  LIG1       -0.0201
     10 C           1.6987    0.2379    0.0000 C.ar    1  LIG1        0.0042
     11 N           1.2138    0.9054    0.0000 N.ar    1  LIG1       -0.3595
     12 H          -1.3599   -1.7926    0.0000 H       1  LIG1        0.0457
     13 H           0.2732   -1.8068    0.9121 H       1  LIG1        0.0457
     14 H           0.2449   -1.7868   -0.9370 H       1  LIG1        0.0457
     15 H          -1.9537    1.2012    0.0000 H       1  LIG1        0.0672
     16 H          -0.2853    2.1644    0.0000 H       1  LIG1        0.0640
     17 H           1.5542   -1.4771    0.0000 H       1  LIG1        0.0653
     18 H           2.8002    0.2379    0.0000 H       1  LIG1        0.0807
     19 H           1.5483    1.9349    0.0000 H       1  LIG1        0.1654
@<TRIPOS>BOND
     1     1     2    1
     2     2     3   ar
     3     3     4    2
     4     3     5   ar
     5     5     6   ar
     6     6     7   ar
     7     7     8   ar
     8     2     8   ar
     9     8     9   ar
    10     9    10   ar
    11    10    11   ar
    12     7    11   ar
    13     1    12    1
    14     1    13    1
    15     1    14    1
    16     5    15    1
    17     6    16    1
    18     9    17    1
    19    10    18    1
    20    11    19    1
