@<TRIPOS>MOLECULE
O=c1nc[nH]cn1
 10 10 0 0 0
SMALL
GASTEIGER
Energy = 0

@<TRIPOS>ATOM
      1 O          -0.0000   -1.3693    0.0000 O.2     1  LIG1       -0.2425
      2 C          -0.0000   -0.5443    0.0000 C.ar    1  LIG1        0.3703
      3 N           0.7145   -0.1318    0.0000 N.ar    1  LIG1       -0.1820
      4 C           0.7145    0.6932    0.0000 C.ar    1  LIG1        0.0998
      5 N           0.0000    1.1057    0.0000 N.ar    1  LIG1       -0.3368
      6 C          -0.7145    0.6932    0.0000 C.ar    1  LIG1        0.0998
      7 N          -0.7145   -0.1318    0.0000 N.ar    1  LIG1       -0.1820
      8 H           1.6684    1.2440    0.0000 H       1  LIG1        0.1029
      9 H           0.0000    2.1882    0.0000 H       1  LIG1        0.1676
     10 H          -1.6684    1.2440    0.0000 H       1  LIG1        0.1029
@<TRIPOS>BOND
     1     1     2    2
     2     2     3   ar
     3     3     4   ar
     4     4     5   ar
     5     5     6   ar
     6     6     7   ar
     7     2     7   ar
     8     4     8    1
     9     5     9    1
    10     6    10    1
