@<TRIPOS>MOLECULE
O=c1[nH]nc2nnccn12
 13 14 0 0 0
SMALL
GASTEIGER
Energy = 0

@<TRIPOS>ATOM
      1 O           1.0466   -1.3010    0.0000 O.2     1  LIG1       -0.2446
      2 C           0.7916   -0.5164    0.0000 C.ar    1  LIG1        0.3497
      3 N           1.2765    0.1511    0.0000 N.ar    1  LIG1       -0.2244
      4 N           0.7916    0.8185    0.0000 N.ar    1  LIG1       -0.1290
      5 C           0.0070    0.5636    0.0000 C.ar    1  LIG1        0.2747
      6 N          -0.7075    0.9761    0.0000 N.ar    1  LIG1       -0.1085
      7 N          -1.4219    0.5636    0.0000 N.ar    1  LIG1       -0.1527
      8 C          -1.4219   -0.2614    0.0000 C.ar    1  LIG1        0.0667
      9 C          -0.7075   -0.6739    0.0000 C.ar    1  LIG1        0.0374
     10 N           0.0070   -0.2614    0.0000 N.ar    1  LIG1       -0.2326
     11 H           2.3590    0.1511    0.0000 H       1  LIG1        0.1938
     12 H          -2.3758   -0.8121    0.0000 H       1  LIG1        0.0863
     13 H          -0.7075   -1.7754    0.0000 H       1  LIG1        0.0831
@<TRIPOS>BOND
     1     1     2    2
     2     2     3   ar
     3     3     4   ar
     4     4     5   ar
     5     5     6   ar
     6     6     7   ar
     7     7     8   ar
     8     8     9   ar
     9     9    10   ar
    10     2    10   ar
    11     5    10   ar
    12     3    11    1
    13     8    12    1
    14     9    13    1
