@<TRIPOS>MOLECULE
O=c1cc2[nH]ccn2cn1
 15 16 0 0 0
SMALL
GASTEIGER
Energy = 0

@<TRIPOS>ATOM
      1 O           1.7362    0.7259    0.0000 O.2     1  LIG1       -0.2657
      2 C           1.0217    0.3134    0.0000 C.ar    1  LIG1        0.2750
      3 C           0.3073    0.7259    0.0000 C.ar    1  LIG1        0.0456
      4 C          -0.4072    0.3134    0.0000 C.ar    1  LIG1        0.1216
      5 N          -1.1918    0.5684    0.0000 N.ar    1  LIG1       -0.3458
      6 C          -1.6768   -0.0991    0.0000 C.ar    1  LIG1        0.0200
      7 C          -1.1918   -0.7665    0.0000 C.ar    1  LIG1        0.0285
      8 N          -0.4072   -0.5116    0.0000 N.ar    1  LIG1       -0.2916
      9 C           0.3073   -0.9241    0.0000 C.ar    1  LIG1        0.1054
     10 N           1.0217   -0.5116    0.0000 N.ar    1  LIG1       -0.1989
     11 H           0.3073    1.8274    0.0000 H       1  LIG1        0.0709
     12 H          -1.5263    1.5979    0.0000 H       1  LIG1        0.1668
     13 H          -2.7783   -0.0991    0.0000 H       1  LIG1        0.0822
     14 H          -1.5321   -1.8141    0.0000 H       1  LIG1        0.0828
     15 H           0.3073   -2.0256    0.0000 H       1  LIG1        0.1034
@<TRIPOS>BOND
     1     1     2    2
     2     2     3   ar
     3     3     4   ar
     4     4     5   ar
     5     5     6   ar
     6     6     7   ar
     7     7     8   ar
     8     4     8   ar
     9     8     9   ar
    10     9    10   ar
    11     2    10   ar
    12     3    11    1
    13     5    12    1
    14     6    13    1
    15     7    14    1
    16     9    15    1
