@<TRIPOS>MOLECULE
c1cn2ncoc2n1
 11 12 0 0 0
SMALL
GASTEIGER
Energy = 0

@<TRIPOS>ATOM
      1 O           0.7551   -0.6501    0.0000 O.2     1  LIG1       -0.4101
      2 C           1.2400    0.0173    0.0000 C.ar    1  LIG1        0.2046
      3 N           0.7551    0.6848    0.0000 N.ar    1  LIG1       -0.1325
      4 N          -0.0295    0.4298    0.0000 N.ar    1  LIG1       -0.1864
      5 C          -0.8141    0.6848    0.0000 C.ar    1  LIG1        0.0526
      6 C          -1.2991    0.0173    0.0000 C.ar    1  LIG1        0.0512
      7 N          -0.8141   -0.6501    0.0000 N.ar    1  LIG1       -0.2015
      8 C          -0.0295   -0.3952    0.0000 C.ar    1  LIG1        0.3255
      9 H           2.3415    0.0173    0.0000 H       1  LIG1        0.1272
     10 H          -1.1544    1.7324    0.0000 H       1  LIG1        0.0847
     11 H          -2.4006    0.0173    0.0000 H       1  LIG1        0.0847
@<TRIPOS>BOND
     1     1     2   ar
     2     2     3   ar
     3     3     4   ar
     4     4     5   ar
     5     5     6   ar
     6     6     7   ar
     7     7     8   ar
     8     1     8   ar
     9     4     8   ar
    10     2     9    1
    11     5    10    1
    12     6    11    1
