@<TRIPOS>MOLECULE
c1n[nH]c2ccncc12
 14 15 0 0 0
SMALL
GASTEIGER
Energy = 0

@<TRIPOS>ATOM
      1 N           0.9261   -0.6630    0.0000 N.ar    1  LIG1       -0.2769
      2 N           1.4111    0.0045    0.0000 N.ar    1  LIG1       -0.1811
      3 C           0.9261    0.6719    0.0000 C.ar    1  LIG1        0.0583
      4 C           0.1415    0.4170    0.0000 C.ar    1  LIG1        0.0375
      5 C          -0.5730    0.8295    0.0000 C.ar    1  LIG1        0.0382
      6 N          -1.2874    0.4170    0.0000 N.ar    1  LIG1       -0.2625
      7 C          -1.2874   -0.4080    0.0000 C.ar    1  LIG1        0.0296
      8 C          -0.5730   -0.8205    0.0000 C.ar    1  LIG1       -0.0182
      9 C           0.1415   -0.4080    0.0000 C.ar    1  LIG1        0.0686
     10 H           1.2606   -1.6925    0.0000 H       1  LIG1        0.1889
     11 H           1.2664    1.7195    0.0000 H       1  LIG1        0.0854
     12 H          -0.5730    1.9310    0.0000 H       1  LIG1        0.0837
     13 H          -2.2413   -0.9587    0.0000 H       1  LIG1        0.0830
     14 H          -0.5730   -1.9220    0.0000 H       1  LIG1        0.0654
@<TRIPOS>BOND
     1     1     2   ar
     2     2     3   ar
     3     3     4   ar
     4     4     5   ar
     5     5     6   ar
     6     6     7   ar
     7     7     8   ar
     8     8     9   ar
     9     1     9   ar
    10     4     9   ar
    11     1    10    1
    12     3    11    1
    13     5    12    1
    14     7    13    1
    15     8    14    1
