@<TRIPOS>MOLECULE
Cn1ccnn1
 11 11 0 0 0
SMALL
GASTEIGER
Energy = 0

@<TRIPOS>ATOM
      1 C          -1.2829   -0.0276    0.0000 C.3     1  LIG1        0.0318
      2 N          -0.4579   -0.0276    0.0000 N.ar    1  LIG1       -0.2548
      3 C           0.0271   -0.6951    0.0000 C.ar    1  LIG1        0.0451
      4 C           0.8117   -0.4401    0.0000 C.ar    1  LIG1        0.0693
      5 N           0.8117    0.3849    0.0000 N.ar    1  LIG1       -0.1380
      6 N           0.0271    0.6398    0.0000 N.ar    1  LIG1       -0.0660
      7 H          -1.6634   -1.1022    0.0000 H       1  LIG1        0.0473
      8 H          -1.6776    0.5309   -0.9121 H       1  LIG1        0.0473
      9 H          -1.6576    0.5026    0.9370 H       1  LIG1        0.0473
     10 H          -0.3132   -1.7427    0.0000 H       1  LIG1        0.0842
     11 H           1.7029   -1.0875    0.0000 H       1  LIG1        0.0864
@<TRIPOS>BOND
     1     1     2    1
     2     2     3   ar
     3     3     4   ar
     4     4     5   ar
     5     5     6   ar
     6     2     6   ar
     7     1     7    1
     8     1     8    1
     9     1     9    1
    10     3    10    1
    11     4    11    1
