@<TRIPOS>MOLECULE
Cn1ccc(=O)c2ccccc12
 21 22 0 0 0
SMALL
GASTEIGER
Energy = 0

@<TRIPOS>ATOM
      1 C           0.5717   -1.6829    0.0000 C.3     1  LIG1        0.0119
      2 N           0.5717   -0.8579    0.0000 N.ar    1  LIG1       -0.3495
      3 C           1.2861   -0.4454    0.0000 C.ar    1  LIG1        0.0084
      4 C           1.2861    0.3796    0.0000 C.ar    1  LIG1        0.0019
      5 C           0.5717    0.7921    0.0000 C.ar    1  LIG1        0.1894
      6 O           0.5717    1.6171    0.0000 O.2     1  LIG1       -0.2872
      7 C          -0.1428    0.3796    0.0000 C.ar    1  LIG1        0.0451
      8 C          -0.8573    0.7921    0.0000 C.ar    1  LIG1       -0.0490
      9 C          -1.5718    0.3796    0.0000 C.ar    1  LIG1       -0.0610
     10 C          -1.5718   -0.4454    0.0000 C.ar    1  LIG1       -0.0598
     11 C          -0.8573   -0.8579    0.0000 C.ar    1  LIG1       -0.0375
     12 C          -0.1428   -0.4454    0.0000 C.ar    1  LIG1        0.0525
     13 H           1.6463   -2.0634    0.0000 H       1  LIG1        0.0456
     14 H           0.0132   -2.0776   -0.9121 H       1  LIG1        0.0456
     15 H           0.0415   -2.0576    0.9370 H       1  LIG1        0.0456
     16 H           2.2400   -0.9961    0.0000 H       1  LIG1        0.0810
     17 H           2.2400    0.9303    0.0000 H       1  LIG1        0.0670
     18 H          -0.8573    1.8936    0.0000 H       1  LIG1        0.0625
     19 H          -2.5257    0.9304    0.0000 H       1  LIG1        0.0618
     20 H          -2.5257   -0.9962    0.0000 H       1  LIG1        0.0618
     21 H          -0.8573   -1.9594    0.0000 H       1  LIG1        0.0638
@<TRIPOS>BOND
     1     1     2    1
     2     2     3   ar
     3     3     4   ar
     4     4     5   ar
     5     5     6    2
     6     5     7   ar
     7     7     8   ar
     8     8     9   ar
     9     9    10   ar
    10    10    11   ar
    11    11    12   ar
    12     2    12   ar
    13     7    12   ar
    14     1    13    1
    15     1    14    1
    16     1    15    1
    17     3    16    1
    18     4    17    1
    19     8    18    1
    20     9    19    1
    21    10    20    1
    22    11    21    1
