@<TRIPOS>MOLECULE
Cn1cnc2c(=O)nc[nH]c12
 17 18 0 0 0
SMALL
GASTEIGER
Energy = 0

@<TRIPOS>ATOM
      1 C           1.1609   -1.5085    0.0000 C.3     1  LIG1        0.0146
      2 N           0.9060   -0.7239    0.0000 N.ar    1  LIG1       -0.3195
      3 C           1.3909   -0.0565    0.0000 C.ar    1  LIG1        0.0981
      4 N           0.9060    0.6110    0.0000 N.ar    1  LIG1       -0.2286
      5 C           0.1213    0.3560    0.0000 C.ar    1  LIG1        0.1719
      6 C           0.1213   -0.4690    0.0000 C.ar    1  LIG1        0.1446
      7 N          -0.5931   -0.8815    0.0000 N.ar    1  LIG1       -0.3304
      8 C          -1.3076   -0.4690    0.0000 C.ar    1  LIG1        0.0988
      9 N          -1.3076    0.3560    0.0000 N.ar    1  LIG1       -0.1976
     10 C          -0.5931    0.7685    0.0000 C.ar    1  LIG1        0.3006
     11 O          -0.5931    1.5935    0.0000 O.2     1  LIG1       -0.2634
     12 H           2.3005   -1.5384    0.0000 H       1  LIG1        0.0457
     13 H           0.7517   -2.0564   -0.9121 H       1  LIG1        0.0457
     14 H           0.7724   -2.0287    0.9370 H       1  LIG1        0.0457
     15 H           2.4924   -0.0565    0.0000 H       1  LIG1        0.1029
     16 H          -0.5931   -1.9640    0.0000 H       1  LIG1        0.1682
     17 H          -2.2615   -1.0198    0.0000 H       1  LIG1        0.1028
@<TRIPOS>BOND
     1     1     2    1
     2     2     3   ar
     3     3     4   ar
     4     4     5   ar
     5     5     6   ar
     6     2     6   ar
     7     6     7   ar
     8     7     8   ar
     9     8     9   ar
    10     9    10   ar
    11     5    10   ar
    12    10    11    2
    13     1    12    1
    14     1    13    1
    15     1    14    1
    16     3    15    1
    17     7    16    1
    18     8    17    1
