@<TRIPOS>MOLECULE
Cn1ccnc1
 12 12 0 0 0
SMALL
GASTEIGER
Energy = 0

@<TRIPOS>ATOM
      1 C          -1.2822   -0.0108    0.0000 C.3     1  LIG1        0.0127
      2 N          -0.4572   -0.0108    0.0000 N.ar    1  LIG1       -0.3399
      3 C           0.0278   -0.6783    0.0000 C.ar    1  LIG1        0.0237
      4 C           0.8124   -0.4233    0.0000 C.ar    1  LIG1        0.0454
      5 N           0.8124    0.4017    0.0000 N.ar    1  LIG1       -0.2441
      6 C           0.0278    0.6566    0.0000 C.ar    1  LIG1        0.0956
      7 H          -1.6627   -1.0854    0.0000 H       1  LIG1        0.0456
      8 H          -1.6769    0.5477   -0.9121 H       1  LIG1        0.0456
      9 H          -1.6569    0.5194    0.9370 H       1  LIG1        0.0456
     10 H          -0.3125   -1.7259    0.0000 H       1  LIG1        0.0825
     11 H           1.7036   -1.0707    0.0000 H       1  LIG1        0.0845
     12 H          -0.3125    1.7042    0.0000 H       1  LIG1        0.1028
@<TRIPOS>BOND
     1     1     2    1
     2     2     3   ar
     3     3     4   ar
     4     4     5   ar
     5     5     6   ar
     6     2     6   ar
     7     1     7    1
     8     1     8    1
     9     1     9    1
    10     3    10    1
    11     4    11    1
    12     6    12    1
