@<TRIPOS>MOLECULE
Cn1[nH]cnc1=O
 12 12 0 0 0
SMALL
GASTEIGER
Energy = 0

@<TRIPOS>ATOM
      1 C          -0.1547   -1.2579    0.0000 C.3     1  LIG1        0.0334
      2 N           0.1003   -0.4733    0.0000 N.ar    1  LIG1       -0.2379
      3 N           0.8849   -0.2183    0.0000 N.ar    1  LIG1       -0.2832
      4 C           0.8849    0.6067    0.0000 C.ar    1  LIG1        0.1135
      5 N           0.1003    0.8616    0.0000 N.ar    1  LIG1       -0.1810
      6 C          -0.3847    0.1942    0.0000 C.ar    1  LIG1        0.3640
      7 O          -1.2097    0.1942    0.0000 O.2     1  LIG1       -0.2430
      8 H           0.7497   -1.9520    0.0000 H       1  LIG1        0.0474
      9 H          -0.8078   -1.4606   -0.9121 H       1  LIG1        0.0474
     10 H          -0.7748   -1.4504    0.9370 H       1  LIG1        0.0474
     11 H           1.7607   -0.8545    0.0000 H       1  LIG1        0.1881
     12 H           1.7760    1.2542    0.0000 H       1  LIG1        0.1042
@<TRIPOS>BOND
     1     1     2    1
     2     2     3   ar
     3     3     4   ar
     4     4     5   ar
     5     5     6   ar
     6     2     6   ar
     7     6     7    2
     8     1     8    1
     9     1     9    1
    10     1    10    1
    11     3    11    1
    12     4    12    1
