@<TRIPOS>MOLECULE
O=c1cn[nH]c2ncnn12
 13 14 0 0 0
SMALL
GASTEIGER
Energy = 0

@<TRIPOS>ATOM
      1 O           0.4909   -1.4654    0.0000 O.2     1  LIG1       -0.2640
      2 C           0.4909   -0.6404    0.0000 C.ar    1  LIG1        0.2942
      3 C           1.2054   -0.2279    0.0000 C.ar    1  LIG1        0.1140
      4 N           1.2054    0.5971    0.0000 N.ar    1  LIG1       -0.1739
      5 N           0.4909    1.0096    0.0000 N.ar    1  LIG1       -0.2445
      6 C          -0.2235    0.5971    0.0000 C.ar    1  LIG1        0.2502
      7 N          -1.0081    0.8521    0.0000 N.ar    1  LIG1       -0.1978
      8 C          -1.4931    0.1846    0.0000 C.ar    1  LIG1        0.1406
      9 N          -1.0081   -0.4828    0.0000 N.ar    1  LIG1       -0.1491
     10 N          -0.2235   -0.2279    0.0000 N.ar    1  LIG1       -0.1588
     11 H           2.1593   -0.7787    0.0000 H       1  LIG1        0.0904
     12 H           0.4909    2.0921    0.0000 H       1  LIG1        0.1920
     13 H          -2.5946    0.1846    0.0000 H       1  LIG1        0.1066
@<TRIPOS>BOND
     1     1     2    2
     2     2     3   ar
     3     3     4   ar
     4     4     5   ar
     5     5     6   ar
     6     6     7   ar
     7     7     8   ar
     8     8     9   ar
     9     9    10   ar
    10     2    10   ar
    11     6    10   ar
    12     3    11    1
    13     5    12    1
    14     8    13    1
