@<TRIPOS>MOLECULE
Cn1cnc2ncccc2c1=O
 19 20 0 0 0
SMALL
GASTEIGER
Energy = 0

@<TRIPOS>ATOM
      1 C           1.8837   -0.6054    0.0000 C.3     1  LIG1        0.0161
      2 N           1.1692   -0.1929    0.0000 N.ar    1  LIG1       -0.3018
      3 C           1.1692    0.6321    0.0000 C.ar    1  LIG1        0.1007
      4 N           0.4547    1.0446    0.0000 N.ar    1  LIG1       -0.2176
      5 C          -0.2597    0.6321    0.0000 C.ar    1  LIG1        0.1665
      6 N          -0.9742    1.0446    0.0000 N.ar    1  LIG1       -0.2355
      7 C          -1.6887    0.6321    0.0000 C.ar    1  LIG1        0.0300
      8 C          -1.6887   -0.1929    0.0000 C.ar    1  LIG1       -0.0427
      9 C          -0.9742   -0.6054    0.0000 C.ar    1  LIG1       -0.0444
     10 C          -0.2597   -0.1929    0.0000 C.ar    1  LIG1        0.0836
     11 C           0.4547   -0.6054    0.0000 C.ar    1  LIG1        0.2629
     12 O           0.4547   -1.4304    0.0000 O.2     1  LIG1       -0.2669
     13 H           2.7505    0.1350    0.0000 H       1  LIG1        0.0457
     14 H           1.9463   -1.2864   -0.9121 H       1  LIG1        0.0457
     15 H           1.9431   -1.2520    0.9370 H       1  LIG1        0.0457
     16 H           2.1231    1.1829    0.0000 H       1  LIG1        0.1030
     17 H          -2.6426    1.1829    0.0000 H       1  LIG1        0.0830
     18 H          -2.6426   -0.7437    0.0000 H       1  LIG1        0.0633
     19 H          -0.9742   -1.7069    0.0000 H       1  LIG1        0.0627
@<TRIPOS>BOND
     1     1     2    1
     2     2     3   ar
     3     3     4   ar
     4     4     5   ar
     5     5     6   ar
     6     6     7   ar
     7     7     8   ar
     8     8     9   ar
     9     9    10   ar
    10     5    10   ar
    11    10    11   ar
    12     2    11   ar
    13    11    12    2
    14     1    13    1
    15     1    14    1
    16     1    15    1
    17     3    16    1
    18     7    17    1
    19     8    18    1
    20     9    19    1
