@<TRIPOS>MOLECULE
c1ccc2ncccc2c1
 17 18 0 0 0
SMALL
GASTEIGER
Energy = 0

@<TRIPOS>ATOM
      1 C           1.4406   -0.4260    0.0000 C.ar    1  LIG1       -0.0611
      2 C           1.4406    0.3990    0.0000 C.ar    1  LIG1       -0.0597
      3 C           0.7262    0.8115    0.0000 C.ar    1  LIG1       -0.0357
      4 C           0.0117    0.3990    0.0000 C.ar    1  LIG1        0.0710
      5 N          -0.7028    0.8115    0.0000 N.ar    1  LIG1       -0.2550
      6 C          -1.4173    0.3990    0.0000 C.ar    1  LIG1        0.0283
      7 C          -1.4173   -0.4260    0.0000 C.ar    1  LIG1       -0.0430
      8 C          -0.7028   -0.8385    0.0000 C.ar    1  LIG1       -0.0511
      9 C           0.0117   -0.4260    0.0000 C.ar    1  LIG1        0.0004
     10 C           0.7262   -0.8385    0.0000 C.ar    1  LIG1       -0.0526
     11 H           2.3945   -0.9767    0.0000 H       1  LIG1        0.0618
     12 H           2.3945    0.9497    0.0000 H       1  LIG1        0.0618
     13 H           0.7262    1.9130    0.0000 H       1  LIG1        0.0639
     14 H          -2.3712    0.9498    0.0000 H       1  LIG1        0.0830
     15 H          -2.3712   -0.9768    0.0000 H       1  LIG1        0.0633
     16 H          -0.7028   -1.9400    0.0000 H       1  LIG1        0.0625
     17 H           0.7262   -1.9400    0.0000 H       1  LIG1        0.0624
@<TRIPOS>BOND
     1     1     2   ar
     2     2     3   ar
     3     3     4   ar
     4     4     5   ar
     5     5     6   ar
     6     6     7   ar
     7     7     8   ar
     8     8     9   ar
     9     4     9   ar
    10     9    10   ar
    11     1    10   ar
    12     1    11    1
    13     2    12    1
    14     3    13    1
    15     6    14    1
    16     7    15    1
    17     8    16    1
    18    10    17    1
