@<TRIPOS>MOLECULE
O=c1cn[nH]c2cncnc12
 15 16 0 0 0
SMALL
GASTEIGER
Energy = 0

@<TRIPOS>ATOM
      1 O           0.6351   -1.4782    0.0000 O.2     1  LIG1       -0.2839
      2 C           0.6351   -0.6532    0.0000 C.ar    1  LIG1        0.2258
      3 C           1.3496   -0.2407    0.0000 C.ar    1  LIG1        0.0965
      4 N           1.3496    0.5843    0.0000 N.ar    1  LIG1       -0.1778
      5 N           0.6351    0.9968    0.0000 N.ar    1  LIG1       -0.2738
      6 C          -0.0793    0.5843    0.0000 C.ar    1  LIG1        0.1043
      7 C          -0.7938    0.9968    0.0000 C.ar    1  LIG1        0.0562
      8 N          -1.5083    0.5843    0.0000 N.ar    1  LIG1       -0.2416
      9 C          -1.5083   -0.2407    0.0000 C.ar    1  LIG1        0.1168
     10 N          -0.7938   -0.6532    0.0000 N.ar    1  LIG1       -0.2300
     11 C          -0.0793   -0.2407    0.0000 C.ar    1  LIG1        0.1398
     12 H           2.3035   -0.7915    0.0000 H       1  LIG1        0.0887
     13 H           0.6351    2.0793    0.0000 H       1  LIG1        0.1890
     14 H          -0.7938    2.0983    0.0000 H       1  LIG1        0.0852
     15 H          -2.4622   -0.7915    0.0000 H       1  LIG1        0.1047
@<TRIPOS>BOND
     1     1     2    2
     2     2     3   ar
     3     3     4   ar
     4     4     5   ar
     5     5     6   ar
     6     6     7   ar
     7     7     8   ar
     8     8     9   ar
     9     9    10   ar
    10    10    11   ar
    11     2    11   ar
    12     6    11   ar
    13     3    12    1
    14     5    13    1
    15     7    14    1
    16     9    15    1
