@<TRIPOS>MOLECULE
Cn1cc2cccnn2c1=O
 18 19 0 0 0
SMALL
GASTEIGER
Energy = 0

@<TRIPOS>ATOM
      1 C           1.9150    0.1809    0.0000 C.3     1  LIG1        0.0162
      2 N           1.0900    0.1809    0.0000 N.ar    1  LIG1       -0.3001
      3 C           0.6051    0.8483    0.0000 C.ar    1  LIG1        0.0346
      4 C          -0.1795    0.5934    0.0000 C.ar    1  LIG1        0.0869
      5 C          -0.8940    1.0059    0.0000 C.ar    1  LIG1       -0.0332
      6 C          -1.6084    0.5934    0.0000 C.ar    1  LIG1       -0.0399
      7 C          -1.6084   -0.2316    0.0000 C.ar    1  LIG1        0.0486
      8 N          -0.8940   -0.6441    0.0000 N.ar    1  LIG1       -0.1705
      9 N          -0.1795   -0.2316    0.0000 N.ar    1  LIG1       -0.1804
     10 C           0.6051   -0.4866    0.0000 C.ar    1  LIG1        0.3499
     11 O           0.8601   -1.2712    0.0000 O.2     1  LIG1       -0.2444
     12 H           2.2955    1.2555    0.0000 H       1  LIG1        0.0457
     13 H           2.3097   -0.3776   -0.9121 H       1  LIG1        0.0457
     14 H           2.2897   -0.3493    0.9370 H       1  LIG1        0.0457
     15 H           0.9455    1.8959    0.0000 H       1  LIG1        0.0832
     16 H          -0.8940    2.1074    0.0000 H       1  LIG1        0.0640
     17 H          -2.5623    1.1441    0.0000 H       1  LIG1        0.0634
     18 H          -2.5623   -0.7823    0.0000 H       1  LIG1        0.0847
@<TRIPOS>BOND
     1     1     2    1
     2     2     3   ar
     3     3     4   ar
     4     4     5   ar
     5     5     6   ar
     6     6     7   ar
     7     7     8   ar
     8     8     9   ar
     9     4     9   ar
    10     9    10   ar
    11     2    10   ar
    12    10    11    2
    13     1    12    1
    14     1    13    1
    15     1    14    1
    16     3    15    1
    17     5    16    1
    18     6    17    1
    19     7    18    1
