@<TRIPOS>MOLECULE
Cn1ccc2cncnc2c1=O
 19 20 0 0 0
SMALL
GASTEIGER
Energy = 0

@<TRIPOS>ATOM
      1 C           1.9114   -0.5787    0.0000 C.3     1  LIG1        0.0148
      2 N           1.1970   -0.1662    0.0000 N.ar    1  LIG1       -0.3165
      3 C           1.1970    0.6588    0.0000 C.ar    1  LIG1        0.0083
      4 C           0.4825    1.0713    0.0000 C.ar    1  LIG1       -0.0347
      5 C          -0.2320    0.6588    0.0000 C.ar    1  LIG1        0.0252
      6 C          -0.9464    1.0713    0.0000 C.ar    1  LIG1        0.0387
      7 N          -1.6609    0.6588    0.0000 N.ar    1  LIG1       -0.2431
      8 C          -1.6609   -0.1662    0.0000 C.ar    1  LIG1        0.1168
      9 N          -0.9464   -0.5787    0.0000 N.ar    1  LIG1       -0.2300
     10 C          -0.2320   -0.1662    0.0000 C.ar    1  LIG1        0.1384
     11 C           0.4825   -0.5787    0.0000 C.ar    1  LIG1        0.2772
     12 O           0.4825   -1.4037    0.0000 O.2     1  LIG1       -0.2654
     13 H           2.7783    0.1616    0.0000 H       1  LIG1        0.0457
     14 H           1.9739   -1.2597   -0.9121 H       1  LIG1        0.0457
     15 H           1.9708   -1.2253    0.9370 H       1  LIG1        0.0457
     16 H           2.1509    1.2096    0.0000 H       1  LIG1        0.0810
     17 H           0.4825    2.1728    0.0000 H       1  LIG1        0.0639
     18 H          -0.9464    2.1728    0.0000 H       1  LIG1        0.0837
     19 H          -2.6148   -0.7170    0.0000 H       1  LIG1        0.1047
@<TRIPOS>BOND
     1     1     2    1
     2     2     3   ar
     3     3     4   ar
     4     4     5   ar
     5     5     6   ar
     6     6     7   ar
     7     7     8   ar
     8     8     9   ar
     9     9    10   ar
    10     5    10   ar
    11    10    11   ar
    12     2    11   ar
    13    11    12    2
    14     1    13    1
    15     1    14    1
    16     1    15    1
    17     3    16    1
    18     4    17    1
    19     6    18    1
    20     8    19    1
