@<TRIPOS>MOLECULE
Cn1ccc(=O)nc1
 14 14 0 0 0
SMALL
GASTEIGER
Energy = 0

@<TRIPOS>ATOM
      1 C           0.0137   -1.7053    0.0000 C.3     1  LIG1        0.0127
      2 N           0.0137   -0.8803    0.0000 N.ar    1  LIG1       -0.3411
      3 C           0.7282   -0.4678    0.0000 C.ar    1  LIG1        0.0108
      4 C           0.7282    0.3572    0.0000 C.ar    1  LIG1        0.0208
      5 C           0.0137    0.7697    0.0000 C.ar    1  LIG1        0.2729
      6 O           0.0137    1.5947    0.0000 O.2     1  LIG1       -0.2658
      7 N          -0.7008    0.3572    0.0000 N.ar    1  LIG1       -0.1994
      8 C          -0.7008   -0.4678    0.0000 C.ar    1  LIG1        0.0996
      9 H           1.0883   -2.0858    0.0000 H       1  LIG1        0.0456
     10 H          -0.5448   -2.1000   -0.9121 H       1  LIG1        0.0456
     11 H          -0.5165   -2.0800    0.9370 H       1  LIG1        0.0456
     12 H           1.6821   -1.0186    0.0000 H       1  LIG1        0.0811
     13 H           1.6821    0.9080    0.0000 H       1  LIG1        0.0687
     14 H          -1.6547   -1.0186    0.0000 H       1  LIG1        0.1030
@<TRIPOS>BOND
     1     1     2    1
     2     2     3   ar
     3     3     4   ar
     4     4     5   ar
     5     5     6    2
     6     5     7   ar
     7     7     8   ar
     8     2     8   ar
     9     1     9    1
    10     1    10    1
    11     1    11    1
    12     3    12    1
    13     4    13    1
    14     8    14    1
