@<TRIPOS>MOLECULE
O=c1nn[nH]c2ccccc12
 16 17 0 0 0
SMALL
GASTEIGER
Energy = 0

@<TRIPOS>ATOM
      1 O           0.5838   -1.4758    0.0000 O.2     1  LIG1       -0.2635
      2 C           0.5838   -0.6508    0.0000 C.ar    1  LIG1        0.2990
      3 N           1.2983   -0.2383    0.0000 N.ar    1  LIG1       -0.0880
      4 N           1.2983    0.5867    0.0000 N.ar    1  LIG1       -0.0643
      5 N           0.5838    0.9992    0.0000 N.ar    1  LIG1       -0.2584
      6 C          -0.1306    0.5867    0.0000 C.ar    1  LIG1        0.0711
      7 C          -0.8451    0.9992    0.0000 C.ar    1  LIG1       -0.0361
      8 C          -1.5596    0.5867    0.0000 C.ar    1  LIG1       -0.0597
      9 C          -1.5596   -0.2383    0.0000 C.ar    1  LIG1       -0.0609
     10 C          -0.8451   -0.6508    0.0000 C.ar    1  LIG1       -0.0473
     11 C          -0.1306   -0.2383    0.0000 C.ar    1  LIG1        0.0675
     12 H           0.5838    2.0817    0.0000 H       1  LIG1        0.1906
     13 H          -0.8451    2.1007    0.0000 H       1  LIG1        0.0639
     14 H          -2.5135    1.1375    0.0000 H       1  LIG1        0.0618
     15 H          -2.5135   -0.7891    0.0000 H       1  LIG1        0.0618
     16 H          -0.8451   -1.7523    0.0000 H       1  LIG1        0.0626
@<TRIPOS>BOND
     1     1     2    2
     2     2     3   ar
     3     3     4   ar
     4     4     5   ar
     5     5     6   ar
     6     6     7   ar
     7     7     8   ar
     8     8     9   ar
     9     9    10   ar
    10    10    11   ar
    11     2    11   ar
    12     6    11   ar
    13     5    12    1
    14     7    13    1
    15     8    14    1
    16     9    15    1
    17    10    16    1
