@<TRIPOS>MOLECULE
O=c1ncn2ccccc2n1
 16 17 0 0 0
SMALL
GASTEIGER
Energy = 0

@<TRIPOS>ATOM
      1 O           1.8720   -0.7321    0.0000 O.2     1  LIG1       -0.2425
      2 C           1.1575   -0.3196    0.0000 C.ar    1  LIG1        0.3708
      3 N           1.1575    0.5054    0.0000 N.ar    1  LIG1       -0.1814
      4 C           0.4430    0.9179    0.0000 C.ar    1  LIG1        0.1069
      5 N          -0.2715    0.5054    0.0000 N.ar    1  LIG1       -0.2915
      6 C          -0.9859    0.9179    0.0000 C.ar    1  LIG1        0.0125
      7 C          -1.7004    0.5054    0.0000 C.ar    1  LIG1       -0.0450
      8 C          -1.7004   -0.3196    0.0000 C.ar    1  LIG1       -0.0569
      9 C          -0.9859   -0.7321    0.0000 C.ar    1  LIG1       -0.0186
     10 C          -0.2715   -0.3196    0.0000 C.ar    1  LIG1        0.1441
     11 N           0.4430   -0.7321    0.0000 N.ar    1  LIG1       -0.1737
     12 H           0.4430    2.0194    0.0000 H       1  LIG1        0.1034
     13 H          -0.9859    2.0194    0.0000 H       1  LIG1        0.0814
     14 H          -2.6543    1.0562    0.0000 H       1  LIG1        0.0632
     15 H          -2.6543   -0.8704    0.0000 H       1  LIG1        0.0619
     16 H          -0.9859   -1.8336    0.0000 H       1  LIG1        0.0654
@<TRIPOS>BOND
     1     1     2    2
     2     2     3   ar
     3     3     4   ar
     4     4     5   ar
     5     5     6   ar
     6     6     7   ar
     7     7     8   ar
     8     8     9   ar
     9     9    10   ar
    10     5    10   ar
    11    10    11   ar
    12     2    11   ar
    13     4    12    1
    14     6    13    1
    15     7    14    1
    16     8    15    1
    17     9    16    1
