@<TRIPOS>MOLECULE
c1cnc2onnc2n1
 11 12 0 0 0
SMALL
GASTEIGER
Energy = 0

@<TRIPOS>ATOM
      1 O           0.8930   -0.6564    0.0000 O.2     1  LIG1       -0.3135
      2 N           1.3779    0.0111    0.0000 N.ar    1  LIG1        0.0379
      3 N           0.8930    0.6785    0.0000 N.ar    1  LIG1       -0.0889
      4 C           0.1084    0.4236    0.0000 C.ar    1  LIG1        0.2427
      5 N          -0.6061    0.8361    0.0000 N.ar    1  LIG1       -0.2287
      6 C          -1.3206    0.4236    0.0000 C.ar    1  LIG1        0.0483
      7 C          -1.3206   -0.4014    0.0000 C.ar    1  LIG1        0.0497
      8 N          -0.6061   -0.8139    0.0000 N.ar    1  LIG1       -0.2142
      9 C           0.1084   -0.4014    0.0000 C.ar    1  LIG1        0.2976
     10 H          -2.2745    0.9744    0.0000 H       1  LIG1        0.0846
     11 H          -2.2745   -0.9522    0.0000 H       1  LIG1        0.0846
@<TRIPOS>BOND
     1     1     2   ar
     2     2     3   ar
     3     3     4   ar
     4     4     5   ar
     5     5     6   ar
     6     6     7   ar
     7     7     8   ar
     8     8     9   ar
     9     1     9   ar
    10     4     9   ar
    11     6    10    1
    12     7    11    1
