@<TRIPOS>MOLECULE
Cn1ccc(=O)c2conc12
 17 18 0 0 0
SMALL
GASTEIGER
Energy = 0

@<TRIPOS>ATOM
      1 C           0.4910   -1.6750    0.0000 C.3     1  LIG1        0.0133
      2 N           0.4910   -0.8500    0.0000 N.ar    1  LIG1       -0.3321
      3 C           1.2055   -0.4375    0.0000 C.ar    1  LIG1        0.0099
      4 C           1.2055    0.3875    0.0000 C.ar    1  LIG1        0.0021
      5 C           0.4910    0.8000    0.0000 C.ar    1  LIG1        0.1941
      6 O           0.4910    1.6250    0.0000 O.2     1  LIG1       -0.2870
      7 C          -0.2235    0.3875    0.0000 C.ar    1  LIG1        0.1046
      8 C          -1.0081    0.6424    0.0000 C.ar    1  LIG1        0.1372
      9 O          -1.4930   -0.0250    0.0000 O.2     1  LIG1       -0.3602
     10 N          -1.0081   -0.6924    0.0000 N.ar    1  LIG1       -0.0598
     11 C          -0.2235   -0.4375    0.0000 C.ar    1  LIG1        0.1866
     12 H           1.5656   -2.0555    0.0000 H       1  LIG1        0.0456
     13 H          -0.0675   -2.0697   -0.9121 H       1  LIG1        0.0456
     14 H          -0.0392   -2.0497    0.9370 H       1  LIG1        0.0456
     15 H           2.1594   -0.9883    0.0000 H       1  LIG1        0.0810
     16 H           2.1594    0.9383    0.0000 H       1  LIG1        0.0670
     17 H          -1.3485    1.6900    0.0000 H       1  LIG1        0.1065
@<TRIPOS>BOND
     1     1     2    1
     2     2     3   ar
     3     3     4   ar
     4     4     5   ar
     5     5     6    2
     6     5     7   ar
     7     7     8   ar
     8     8     9   ar
     9     9    10   ar
    10    10    11   ar
    11     2    11   ar
    12     7    11   ar
    13     1    12    1
    14     1    13    1
    15     1    14    1
    16     3    15    1
    17     4    16    1
    18     8    17    1
