@<TRIPOS>MOLECULE
Cn1cncc2nncc12
 16 17 0 0 0
SMALL
GASTEIGER
Energy = 0

@<TRIPOS>ATOM
      1 C           0.5103   -1.4993    0.0000 C.3     1  LIG1        0.0133
      2 N           0.5103   -0.6743    0.0000 N.ar    1  LIG1       -0.3319
      3 C           1.2248   -0.2618    0.0000 C.ar    1  LIG1        0.0961
      4 N           1.2248    0.5632    0.0000 N.ar    1  LIG1       -0.2433
      5 C           0.5103    0.9757    0.0000 C.ar    1  LIG1        0.0584
      6 C          -0.2042    0.5632    0.0000 C.ar    1  LIG1        0.1291
      7 N          -0.9888    0.8182    0.0000 N.ar    1  LIG1       -0.1461
      8 N          -1.4737    0.1507    0.0000 N.ar    1  LIG1       -0.1549
      9 C          -0.9888   -0.5167    0.0000 C.ar    1  LIG1        0.0756
     10 C          -0.2042   -0.2618    0.0000 C.ar    1  LIG1        0.0917
     11 H           1.5849   -1.8798    0.0000 H       1  LIG1        0.0456
     12 H          -0.0482   -1.8940   -0.9121 H       1  LIG1        0.0456
     13 H          -0.0199   -1.8740    0.9370 H       1  LIG1        0.0456
     14 H           2.1787   -0.8126    0.0000 H       1  LIG1        0.1029
     15 H           0.5103    2.0772    0.0000 H       1  LIG1        0.0853
     16 H          -1.3292   -1.5643    0.0000 H       1  LIG1        0.0870
@<TRIPOS>BOND
     1     1     2    1
     2     2     3   ar
     3     3     4   ar
     4     4     5   ar
     5     5     6   ar
     6     6     7   ar
     7     7     8   ar
     8     8     9   ar
     9     9    10   ar
    10     2    10   ar
    11     6    10   ar
    12     1    11    1
    13     1    12    1
    14     1    13    1
    15     3    14    1
    16     5    15    1
    17     9    16    1
