@<TRIPOS>MOLECULE
Cn1c(=O)ccc2c[nH]cc12
 19 20 0 0 0
SMALL
GASTEIGER
Energy = 0

@<TRIPOS>ATOM
      1 C           0.2922   -1.4026    0.0000 C.3     1  LIG1        0.0153
      2 N           0.2922   -0.5776    0.0000 N.ar    1  LIG1       -0.3098
      3 C           1.0067   -0.1651    0.0000 C.ar    1  LIG1        0.2515
      4 O           1.7211   -0.5776    0.0000 O.2     1  LIG1       -0.2677
      5 C           1.0067    0.6599    0.0000 C.ar    1  LIG1        0.0036
      6 C           0.2922    1.0724    0.0000 C.ar    1  LIG1       -0.0461
      7 C          -0.4223    0.6599    0.0000 C.ar    1  LIG1        0.0160
      8 C          -1.2069    0.9149    0.0000 C.ar    1  LIG1        0.0109
      9 N          -1.6918    0.2474    0.0000 N.ar    1  LIG1       -0.3647
     10 C          -1.2069   -0.4200    0.0000 C.ar    1  LIG1        0.0261
     11 C          -0.4223   -0.1651    0.0000 C.ar    1  LIG1        0.0690
     12 H           1.3668   -1.7831    0.0000 H       1  LIG1        0.0457
     13 H          -0.2663   -1.7973   -0.9121 H       1  LIG1        0.0457
     14 H          -0.2380   -1.7773    0.9370 H       1  LIG1        0.0457
     15 H           1.9606    1.2107    0.0000 H       1  LIG1        0.0672
     16 H           0.2922    2.1739    0.0000 H       1  LIG1        0.0626
     17 H          -1.5473    1.9625    0.0000 H       1  LIG1        0.0813
     18 H          -2.7743    0.2474    0.0000 H       1  LIG1        0.1648
     19 H          -1.5473   -1.4676    0.0000 H       1  LIG1        0.0828
@<TRIPOS>BOND
     1     1     2    1
     2     2     3   ar
     3     3     4    2
     4     3     5   ar
     5     5     6   ar
     6     6     7   ar
     7     7     8   ar
     8     8     9   ar
     9     9    10   ar
    10    10    11   ar
    11     2    11   ar
    12     7    11   ar
    13     1    12    1
    14     1    13    1
    15     1    14    1
    16     5    15    1
    17     6    16    1
    18     8    17    1
    19     9    18    1
    20    10    19    1
