@<TRIPOS>MOLECULE
O=c1[nH]cnc2csnc12
 13 14 0 0 0
SMALL
GASTEIGER
Energy = 0

@<TRIPOS>ATOM
      1 O           0.6740   -1.4708    0.0000 O.2     1  LIG1       -0.2655
      2 C           0.6740   -0.6458    0.0000 C.ar    1  LIG1        0.2781
      3 N           1.3885   -0.2333    0.0000 N.ar    1  LIG1       -0.3117
      4 C           1.3885    0.5917    0.0000 C.ar    1  LIG1        0.0967
      5 N           0.6740    1.0042    0.0000 N.ar    1  LIG1       -0.2350
      6 C          -0.0405    0.5917    0.0000 C.ar    1  LIG1        0.1047
      7 C          -0.8251    0.8467    0.0000 C.ar    1  LIG1        0.0220
      8 S          -1.3100    0.1792    0.0000 S.2     1  LIG1        0.0062
      9 N          -0.8251   -0.4882    0.0000 N.ar    1  LIG1       -0.2034
     10 C          -0.0405   -0.2333    0.0000 C.ar    1  LIG1        0.1622
     11 H           2.3260   -0.7746    0.0000 H       1  LIG1        0.1698
     12 H           2.3424    1.1425    0.0000 H       1  LIG1        0.1028
     13 H          -1.1655    1.8943    0.0000 H       1  LIG1        0.0730
@<TRIPOS>BOND
     1     1     2    2
     2     2     3   ar
     3     3     4   ar
     4     4     5   ar
     5     5     6   ar
     6     6     7   ar
     7     7     8   ar
     8     8     9   ar
     9     9    10   ar
    10     2    10   ar
    11     6    10   ar
    12     3    11    1
    13     4    12    1
    14     7    13    1
