@<TRIPOS>MOLECULE
Cn1ccc2n[nH]c(=O)n2c1=O
 18 19 0 0 0
SMALL
GASTEIGER
Energy = 0

@<TRIPOS>ATOM
      1 C           1.9143   -0.4511    0.0000 C.3     1  LIG1        0.0161
      2 N           1.1998   -0.0386    0.0000 N.ar    1  LIG1       -0.3031
      3 C           1.1998    0.7864    0.0000 C.ar    1  LIG1        0.0125
      4 C           0.4853    1.1989    0.0000 C.ar    1  LIG1       -0.0006
      5 C          -0.2292    0.7864    0.0000 C.ar    1  LIG1        0.1671
      6 N          -1.0138    1.0413    0.0000 N.ar    1  LIG1       -0.1513
      7 N          -1.4987    0.3739    0.0000 N.ar    1  LIG1       -0.2259
      8 C          -1.0138   -0.2936    0.0000 C.ar    1  LIG1        0.3524
      9 O          -1.2687   -1.0782    0.0000 O.2     1  LIG1       -0.2445
     10 N          -0.2292   -0.0386    0.0000 N.ar    1  LIG1       -0.1945
     11 C           0.4853   -0.4511    0.0000 C.ar    1  LIG1        0.3386
     12 O           0.4853   -1.2761    0.0000 O.2     1  LIG1       -0.2458
     13 H           2.7811    0.2893    0.0000 H       1  LIG1        0.0457
     14 H           1.9769   -1.1321   -0.9121 H       1  LIG1        0.0457
     15 H           1.9737   -1.0977    0.9370 H       1  LIG1        0.0457
     16 H           2.1537    1.3372    0.0000 H       1  LIG1        0.0811
     17 H           0.4853    2.3004    0.0000 H       1  LIG1        0.0669
     18 H          -2.5812    0.3739    0.0000 H       1  LIG1        0.1937
@<TRIPOS>BOND
     1     1     2    1
     2     2     3   ar
     3     3     4   ar
     4     4     5   ar
     5     5     6   ar
     6     6     7   ar
     7     7     8   ar
     8     8     9    2
     9     8    10   ar
    10     5    10   ar
    11    10    11   ar
    12     2    11   ar
    13    11    12    2
    14     1    13    1
    15     1    14    1
    16     1    15    1
    17     3    16    1
    18     4    17    1
    19     7    18    1
