@<TRIPOS>MOLECULE
O=c1nc2ncoc2c[nH]1
 13 14 0 0 0
SMALL
GASTEIGER
Energy = 0

@<TRIPOS>ATOM
      1 O           1.7610   -0.7303    0.0000 O.2     1  LIG1       -0.2447
      2 C           1.0466   -0.3178    0.0000 C.ar    1  LIG1        0.3479
      3 N           1.0466    0.5072    0.0000 N.ar    1  LIG1       -0.3093
      4 C           0.3321    0.9197    0.0000 C.ar    1  LIG1        0.0524
      5 C          -0.3824    0.5072    0.0000 C.ar    1  LIG1        0.1897
      6 O          -1.1670    0.7621    0.0000 O.2     1  LIG1       -0.4394
      7 C          -1.6519    0.0947    0.0000 C.ar    1  LIG1        0.1847
      8 N          -1.1670   -0.5728    0.0000 N.ar    1  LIG1       -0.1963
      9 C          -0.3824   -0.3178    0.0000 C.ar    1  LIG1        0.2046
     10 N           0.3321   -0.7303    0.0000 N.ar    1  LIG1       -0.1701
     11 H           1.9841    1.0485    0.0000 H       1  LIG1        0.1700
     12 H           0.3321    2.0212    0.0000 H       1  LIG1        0.0847
     13 H          -2.7534    0.0947    0.0000 H       1  LIG1        0.1255
@<TRIPOS>BOND
     1     1     2    2
     2     2     3   ar
     3     3     4   ar
     4     4     5   ar
     5     5     6   ar
     6     6     7   ar
     7     7     8   ar
     8     8     9   ar
     9     5     9   ar
    10     9    10   ar
    11     2    10   ar
    12     3    11    1
    13     4    12    1
    14     7    13    1
