@<TRIPOS>MOLECULE
O=c1nnc2c[nH]ccn12
 14 15 0 0 0
SMALL
GASTEIGER
Energy = 0

@<TRIPOS>ATOM
      1 O           1.0359   -1.2863    0.0000 O.2     1  LIG1       -0.2425
      2 C           0.7809   -0.5016    0.0000 C.ar    1  LIG1        0.3725
      3 N           1.2658    0.1658    0.0000 N.ar    1  LIG1       -0.0878
      4 N           0.7809    0.8332    0.0000 N.ar    1  LIG1       -0.1246
      5 C          -0.0037    0.5783    0.0000 C.ar    1  LIG1        0.1799
      6 C          -0.7182    0.9908    0.0000 C.ar    1  LIG1        0.0470
      7 N          -1.4326    0.5783    0.0000 N.ar    1  LIG1       -0.3628
      8 C          -1.4326   -0.2467    0.0000 C.ar    1  LIG1        0.0186
      9 C          -0.7182   -0.6592    0.0000 C.ar    1  LIG1        0.0321
     10 N          -0.0037   -0.2467    0.0000 N.ar    1  LIG1       -0.2467
     11 H          -0.7182    2.0923    0.0000 H       1  LIG1        0.0845
     12 H          -2.3701    1.1195    0.0000 H       1  LIG1        0.1649
     13 H          -2.3865   -0.7974    0.0000 H       1  LIG1        0.0822
     14 H          -0.7182   -1.7607    0.0000 H       1  LIG1        0.0829
@<TRIPOS>BOND
     1     1     2    2
     2     2     3   ar
     3     3     4   ar
     4     4     5   ar
     5     5     6   ar
     6     6     7   ar
     7     7     8   ar
     8     8     9   ar
     9     9    10   ar
    10     2    10   ar
    11     5    10   ar
    12     6    11    1
    13     7    12    1
    14     8    13    1
    15     9    14    1
