@<TRIPOS>MOLECULE
O=c1ccnc2ccon12
 14 15 0 0 0
SMALL
GASTEIGER
Energy = 0

@<TRIPOS>ATOM
      1 O           0.5091   -1.4362    0.0000 O.2     1  LIG1       -0.2645
      2 C           0.5091   -0.6112    0.0000 C.ar    1  LIG1        0.2871
      3 C           1.2236   -0.1987    0.0000 C.ar    1  LIG1        0.0240
      4 C           1.2236    0.6263    0.0000 C.ar    1  LIG1        0.0352
      5 N           0.5091    1.0388    0.0000 N.ar    1  LIG1       -0.2347
      6 C          -0.2053    0.6263    0.0000 C.ar    1  LIG1        0.1763
      7 C          -0.9900    0.8812    0.0000 C.ar    1  LIG1        0.0214
      8 C          -1.4749    0.2138    0.0000 C.ar    1  LIG1        0.1244
      9 O          -0.9900   -0.4536    0.0000 O.2     1  LIG1       -0.3760
     10 N          -0.2053   -0.1987    0.0000 N.ar    1  LIG1       -0.1196
     11 H           2.1775   -0.7495    0.0000 H       1  LIG1        0.0688
     12 H           2.1775    1.1771    0.0000 H       1  LIG1        0.0832
     13 H          -1.3304    1.9288    0.0000 H       1  LIG1        0.0687
     14 H          -2.5764    0.2138    0.0000 H       1  LIG1        0.1057
@<TRIPOS>BOND
     1     1     2    2
     2     2     3   ar
     3     3     4   ar
     4     4     5   ar
     5     5     6   ar
     6     6     7   ar
     7     7     8   ar
     8     8     9   ar
     9     9    10   ar
    10     2    10   ar
    11     6    10   ar
    12     3    11    1
    13     4    12    1
    14     7    13    1
    15     8    14    1
