@<TRIPOS>MOLECULE
O=c1cnc2nncn2[nH]1
 13 14 0 0 0
SMALL
GASTEIGER
Energy = 0

@<TRIPOS>ATOM
      1 O           1.7672    0.7303    0.0000 O.2     1  LIG1       -0.2648
      2 C           1.0528    0.3178    0.0000 C.ar    1  LIG1        0.2818
      3 N           0.3383    0.7303    0.0000 N.ar    1  LIG1       -0.2540
      4 N          -0.3762    0.3178    0.0000 N.ar    1  LIG1       -0.2042
      5 C          -1.1608    0.5728    0.0000 C.ar    1  LIG1        0.1416
      6 N          -1.6457   -0.0947    0.0000 N.ar    1  LIG1       -0.1342
      7 N          -1.1608   -0.7621    0.0000 N.ar    1  LIG1       -0.1073
      8 C          -0.3762   -0.5072    0.0000 C.ar    1  LIG1        0.2704
      9 N           0.3383   -0.9197    0.0000 N.ar    1  LIG1       -0.2124
     10 C           1.0528   -0.5072    0.0000 C.ar    1  LIG1        0.0971
     11 H           0.3383    1.8128    0.0000 H       1  LIG1        0.1907
     12 H          -1.5012    1.6204    0.0000 H       1  LIG1        0.1067
     13 H           2.0067   -1.0580    0.0000 H       1  LIG1        0.0887
@<TRIPOS>BOND
     1     1     2    2
     2     2     3   ar
     3     3     4   ar
     4     4     5   ar
     5     5     6   ar
     6     6     7   ar
     7     7     8   ar
     8     4     8   ar
     9     8     9   ar
    10     9    10   ar
    11     2    10   ar
    12     3    11    1
    13     5    12    1
    14    10    13    1
