@<TRIPOS>MOLECULE
c1nsc2c[nH]cc12
 12 13 0 0 0
SMALL
GASTEIGER
Energy = 0

@<TRIPOS>ATOM
      1 N           1.4005   -0.1114    0.0000 N.ar    1  LIG1       -0.3654
      2 C           0.9156    0.5560    0.0000 C.ar    1  LIG1        0.0176
      3 C           0.1310    0.3011    0.0000 C.ar    1  LIG1        0.0565
      4 S          -0.6536    0.5560    0.0000 S.2     1  LIG1        0.0131
      5 N          -1.1386   -0.1114    0.0000 N.ar    1  LIG1       -0.2175
      6 C          -0.6536   -0.7789    0.0000 C.ar    1  LIG1        0.0458
      7 C           0.1310   -0.5239    0.0000 C.ar    1  LIG1        0.0261
      8 C           0.9156   -0.7789    0.0000 C.ar    1  LIG1        0.0114
      9 H           2.4830   -0.1114    0.0000 H       1  LIG1        0.1648
     10 H           1.2560    1.6036    0.0000 H       1  LIG1        0.0819
     11 H          -0.9939   -1.8265    0.0000 H       1  LIG1        0.0843
     12 H           1.2560   -1.8265    0.0000 H       1  LIG1        0.0813
@<TRIPOS>BOND
     1     1     2   ar
     2     2     3   ar
     3     3     4   ar
     4     4     5   ar
     5     5     6   ar
     6     6     7   ar
     7     3     7   ar
     8     7     8   ar
     9     1     8   ar
    10     1     9    1
    11     2    10    1
    12     6    11    1
    13     8    12    1
