@<TRIPOS>MOLECULE
O=c1nc2cn[nH]c2c[nH]1
 14 15 0 0 0
SMALL
GASTEIGER
Energy = 0

@<TRIPOS>ATOM
      1 O           1.7507   -0.7289    0.0000 O.2     1  LIG1       -0.2447
      2 C           1.0363   -0.3164    0.0000 C.ar    1  LIG1        0.3465
      3 N           1.0363    0.5086    0.0000 N.ar    1  LIG1       -0.3109
      4 C           0.3218    0.9211    0.0000 C.ar    1  LIG1        0.0333
      5 C          -0.3927    0.5086    0.0000 C.ar    1  LIG1        0.1001
      6 N          -1.1773    0.7635    0.0000 N.ar    1  LIG1       -0.2740
      7 N          -1.6622    0.0961    0.0000 N.ar    1  LIG1       -0.1796
      8 C          -1.1773   -0.5714    0.0000 C.ar    1  LIG1        0.0753
      9 C          -0.3927   -0.3164    0.0000 C.ar    1  LIG1        0.1150
     10 N           0.3218   -0.7289    0.0000 N.ar    1  LIG1       -0.1900
     11 H           1.9738    1.0499    0.0000 H       1  LIG1        0.1699
     12 H           0.3218    2.0226    0.0000 H       1  LIG1        0.0830
     13 H          -1.5118    1.7930    0.0000 H       1  LIG1        0.1890
     14 H          -1.5177   -1.6190    0.0000 H       1  LIG1        0.0870
@<TRIPOS>BOND
     1     1     2    2
     2     2     3   ar
     3     3     4   ar
     4     4     5   ar
     5     5     6   ar
     6     6     7   ar
     7     7     8   ar
     8     8     9   ar
     9     5     9   ar
    10     9    10   ar
    11     2    10   ar
    12     3    11    1
    13     4    12    1
    14     6    13    1
    15     8    14    1
