@<TRIPOS>MOLECULE
c1noc2ncnnc12
 11 12 0 0 0
SMALL
GASTEIGER
Energy = 0

@<TRIPOS>ATOM
      1 O           0.9298   -0.6521    0.0000 O.2     1  LIG1       -0.3328
      2 N           1.4147    0.0153    0.0000 N.ar    1  LIG1       -0.0819
      3 C           0.9298    0.6828    0.0000 C.ar    1  LIG1        0.0995
      4 C           0.1452    0.4278    0.0000 C.ar    1  LIG1        0.1714
      5 N          -0.5693    0.8403    0.0000 N.ar    1  LIG1       -0.1413
      6 N          -1.2838    0.4278    0.0000 N.ar    1  LIG1       -0.1369
      7 C          -1.2838   -0.3972    0.0000 C.ar    1  LIG1        0.1421
      8 N          -0.5693   -0.8097    0.0000 N.ar    1  LIG1       -0.1954
      9 C           0.1452   -0.3972    0.0000 C.ar    1  LIG1        0.2798
     10 H           1.2702    1.7304    0.0000 H       1  LIG1        0.0887
     11 H          -2.2377   -0.9480    0.0000 H       1  LIG1        0.1067
@<TRIPOS>BOND
     1     1     2   ar
     2     2     3   ar
     3     3     4   ar
     4     4     5   ar
     5     5     6   ar
     6     6     7   ar
     7     7     8   ar
     8     8     9   ar
     9     1     9   ar
    10     4     9   ar
    11     3    10    1
    12     7    11    1
