@<TRIPOS>MOLECULE
Cn1cnc2[nH]ccc12
 16 17 0 0 0
SMALL
GASTEIGER
Energy = 0

@<TRIPOS>ATOM
      1 C           0.9164   -1.3109    0.0000 C.3     1  LIG1        0.0133
      2 N           0.6614   -0.5262    0.0000 N.ar    1  LIG1       -0.3319
      3 C           1.1464    0.1412    0.0000 C.ar    1  LIG1        0.0985
      4 N           0.6614    0.8086    0.0000 N.ar    1  LIG1       -0.2182
      5 C          -0.1232    0.5537    0.0000 C.ar    1  LIG1        0.1563
      6 C          -0.1232   -0.2713    0.0000 C.ar    1  LIG1        0.0869
      7 C          -0.9078   -0.5262    0.0000 C.ar    1  LIG1       -0.0186
      8 C          -1.3927    0.1412    0.0000 C.ar    1  LIG1        0.0056
      9 N          -0.9078    0.8086    0.0000 N.ar    1  LIG1       -0.3446
     10 H           2.0560   -1.3407    0.0000 H       1  LIG1        0.0456
     11 H           0.5073   -1.8588   -0.9121 H       1  LIG1        0.0456
     12 H           0.5279   -1.8312    0.9370 H       1  LIG1        0.0456
     13 H           2.2479    0.1412    0.0000 H       1  LIG1        0.1029
     14 H          -1.2482   -1.5738    0.0000 H       1  LIG1        0.0654
     15 H          -2.4942    0.1412    0.0000 H       1  LIG1        0.0808
     16 H          -1.2423    1.8381    0.0000 H       1  LIG1        0.1668
@<TRIPOS>BOND
     1     1     2    1
     2     2     3   ar
     3     3     4   ar
     4     4     5   ar
     5     5     6   ar
     6     2     6   ar
     7     6     7   ar
     8     7     8   ar
     9     8     9   ar
    10     5     9   ar
    11     1    10    1
    12     1    11    1
    13     1    12    1
    14     3    13    1
    15     7    14    1
    16     8    15    1
    17     9    16    1
