@<TRIPOS>MOLECULE
c1nc2cnccc2o1
 13 14 0 0 0
SMALL
GASTEIGER
Energy = 0

@<TRIPOS>ATOM
      1 O           0.9186   -0.6631    0.0000 O.2     1  LIG1       -0.4424
      2 C           1.4035    0.0044    0.0000 C.ar    1  LIG1        0.1831
      3 N           0.9186    0.6718    0.0000 N.ar    1  LIG1       -0.2146
      4 C           0.1339    0.4169    0.0000 C.ar    1  LIG1        0.1273
      5 C          -0.5805    0.8294    0.0000 C.ar    1  LIG1        0.0566
      6 N          -1.2950    0.4169    0.0000 N.ar    1  LIG1       -0.2609
      7 C          -1.2950   -0.4081    0.0000 C.ar    1  LIG1        0.0312
      8 C          -0.5805   -0.8206    0.0000 C.ar    1  LIG1        0.0010
      9 C           0.1339   -0.4081    0.0000 C.ar    1  LIG1        0.1580
     10 H           2.5050    0.0044    0.0000 H       1  LIG1        0.1255
     11 H          -0.5805    1.9309    0.0000 H       1  LIG1        0.0852
     12 H          -2.2489   -0.9589    0.0000 H       1  LIG1        0.0831
     13 H          -0.5805   -1.9221    0.0000 H       1  LIG1        0.0670
@<TRIPOS>BOND
     1     1     2   ar
     2     2     3   ar
     3     3     4   ar
     4     4     5   ar
     5     5     6   ar
     6     6     7   ar
     7     7     8   ar
     8     8     9   ar
     9     1     9   ar
    10     4     9   ar
    11     2    10    1
    12     5    11    1
    13     7    12    1
    14     8    13    1
