@<TRIPOS>MOLECULE
O=c1nc[nH]c2nncn12
 13 14 0 0 0
SMALL
GASTEIGER
Energy = 0

@<TRIPOS>ATOM
      1 O           0.4982   -1.4630    0.0000 O.2     1  LIG1       -0.2439
      2 C           0.4982   -0.6380    0.0000 C.ar    1  LIG1        0.3577
      3 N           1.2126   -0.2255    0.0000 N.ar    1  LIG1       -0.1830
      4 C           1.2126    0.5995    0.0000 C.ar    1  LIG1        0.1014
      5 N           0.4982    1.0120    0.0000 N.ar    1  LIG1       -0.3147
      6 C          -0.2163    0.5995    0.0000 C.ar    1  LIG1        0.2385
      7 N          -1.0009    0.8544    0.0000 N.ar    1  LIG1       -0.1105
      8 N          -1.4858    0.1870    0.0000 N.ar    1  LIG1       -0.1356
      9 C          -1.0009   -0.4805    0.0000 C.ar    1  LIG1        0.1298
     10 N          -0.2163   -0.2255    0.0000 N.ar    1  LIG1       -0.2175
     11 H           2.1665    1.1502    0.0000 H       1  LIG1        0.1029
     12 H           0.4982    2.0945    0.0000 H       1  LIG1        0.1697
     13 H          -1.3413   -1.5281    0.0000 H       1  LIG1        0.1053
@<TRIPOS>BOND
     1     1     2    2
     2     2     3   ar
     3     3     4   ar
     4     4     5   ar
     5     5     6   ar
     6     6     7   ar
     7     7     8   ar
     8     8     9   ar
     9     9    10   ar
    10     2    10   ar
    11     6    10   ar
    12     4    11    1
    13     5    12    1
    14     9    13    1
