@<TRIPOS>MOLECULE
Cn1nc2ncccn2c1=O
 17 18 0 0 0
SMALL
GASTEIGER
Energy = 0

@<TRIPOS>ATOM
      1 C           1.9067    0.1463    0.0000 C.3     1  LIG1        0.0355
      2 N           1.0817    0.1463    0.0000 N.ar    1  LIG1       -0.2139
      3 N           0.5967    0.8137    0.0000 N.ar    1  LIG1       -0.1280
      4 C          -0.1879    0.5588    0.0000 C.ar    1  LIG1        0.2561
      5 N          -0.9023    0.9713    0.0000 N.ar    1  LIG1       -0.2189
      6 C          -1.6168    0.5588    0.0000 C.ar    1  LIG1        0.0328
      7 C          -1.6168   -0.2662    0.0000 C.ar    1  LIG1       -0.0267
      8 C          -0.9023   -0.6787    0.0000 C.ar    1  LIG1        0.0190
      9 N          -0.1879   -0.2662    0.0000 N.ar    1  LIG1       -0.2351
     10 C           0.5967   -0.5212    0.0000 C.ar    1  LIG1        0.3520
     11 O           0.8517   -1.3058    0.0000 O.2     1  LIG1       -0.2444
     12 H           2.2872    1.2209    0.0000 H       1  LIG1        0.0474
     13 H           2.3014   -0.4122   -0.9121 H       1  LIG1        0.0474
     14 H           2.2814   -0.3839    0.9370 H       1  LIG1        0.0474
     15 H          -2.5707    1.1096    0.0000 H       1  LIG1        0.0831
     16 H          -2.5707   -0.8170    0.0000 H       1  LIG1        0.0647
     17 H          -0.9023   -1.7802    0.0000 H       1  LIG1        0.0816
@<TRIPOS>BOND
     1     1     2    1
     2     2     3   ar
     3     3     4   ar
     4     4     5   ar
     5     5     6   ar
     6     6     7   ar
     7     7     8   ar
     8     8     9   ar
     9     4     9   ar
    10     9    10   ar
    11     2    10   ar
    12    10    11    2
    13     1    12    1
    14     1    13    1
    15     1    14    1
    16     6    15    1
    17     7    16    1
    18     8    17    1
