@<TRIPOS>MOLECULE
O=c1nccc2[nH]ncn12
 14 15 0 0 0
SMALL
GASTEIGER
Energy = 0

@<TRIPOS>ATOM
      1 O           0.5057   -1.4477    0.0000 O.2     1  LIG1       -0.2440
      2 C           0.5057   -0.6227    0.0000 C.ar    1  LIG1        0.3552
      3 N           1.2202   -0.2102    0.0000 N.ar    1  LIG1       -0.2009
      4 C           1.2202    0.6148    0.0000 C.ar    1  LIG1        0.0365
      5 C           0.5057    1.0273    0.0000 C.ar    1  LIG1       -0.0009
      6 C          -0.2088    0.6148    0.0000 C.ar    1  LIG1        0.1382
      7 N          -0.9934    0.8697    0.0000 N.ar    1  LIG1       -0.2602
      8 N          -1.4783    0.2023    0.0000 N.ar    1  LIG1       -0.1620
      9 C          -0.9934   -0.4652    0.0000 C.ar    1  LIG1        0.1261
     10 N          -0.2088   -0.2102    0.0000 N.ar    1  LIG1       -0.2337
     11 H           2.1741    1.1656    0.0000 H       1  LIG1        0.0832
     12 H           0.5057    2.1288    0.0000 H       1  LIG1        0.0669
     13 H          -1.3279    1.8992    0.0000 H       1  LIG1        0.1905
     14 H          -1.3338   -1.5128    0.0000 H       1  LIG1        0.1052
@<TRIPOS>BOND
     1     1     2    2
     2     2     3   ar
     3     3     4   ar
     4     4     5   ar
     5     5     6   ar
     6     6     7   ar
     7     7     8   ar
     8     8     9   ar
     9     9    10   ar
    10     2    10   ar
    11     6    10   ar
    12     4    11    1
    13     5    12    1
    14     7    13    1
    15     9    14    1
