@<TRIPOS>MOLECULE
Cn1cnc2cc[nH]c2c1=O
 18 19 0 0 0
SMALL
GASTEIGER
Energy = 0

@<TRIPOS>ATOM
      1 C          -1.7403   -0.5659    0.0000 C.3     1  LIG1        0.0161
      2 N          -1.0258   -0.1534    0.0000 N.ar    1  LIG1       -0.3007
      3 C          -1.0258    0.6716    0.0000 C.ar    1  LIG1        0.0991
      4 N          -0.3114    1.0841    0.0000 N.ar    1  LIG1       -0.2354
      5 C           0.4031    0.6716    0.0000 C.ar    1  LIG1        0.0954
      6 C           0.4031   -0.1534    0.0000 C.ar    1  LIG1        0.1303
      7 N           1.1877   -0.4083    0.0000 N.ar    1  LIG1       -0.3552
      8 C           1.6727    0.2591    0.0000 C.ar    1  LIG1        0.0044
      9 C           1.1877    0.9265    0.0000 C.ar    1  LIG1       -0.0181
     10 C          -0.3114   -0.5659    0.0000 C.ar    1  LIG1        0.2777
     11 O          -0.3114   -1.3909    0.0000 O.2     1  LIG1       -0.2653
     12 H          -2.6071    0.1745    0.0000 H       1  LIG1        0.0457
     13 H          -1.8029   -1.2469    0.9121 H       1  LIG1        0.0457
     14 H          -1.7997   -1.2125   -0.9370 H       1  LIG1        0.0457
     15 H          -1.9797    1.2223    0.0000 H       1  LIG1        0.1030
     16 H           1.5222   -1.4378    0.0000 H       1  LIG1        0.1655
     17 H           2.7742    0.2591    0.0000 H       1  LIG1        0.0807
     18 H           1.5280    1.9741    0.0000 H       1  LIG1        0.0654
@<TRIPOS>BOND
     1     1     2    1
     2     2     3   ar
     3     3     4   ar
     4     4     5   ar
     5     5     6   ar
     6     6     7   ar
     7     7     8   ar
     8     8     9   ar
     9     5     9   ar
    10     6    10   ar
    11     2    10   ar
    12    10    11    2
    13     1    12    1
    14     1    13    1
    15     1    14    1
    16     3    15    1
    17     7    16    1
    18     8    17    1
    19     9    18    1
