@<TRIPOS>MOLECULE
O=c1nc2ncccn2[nH]1
 14 15 0 0 0
SMALL
GASTEIGER
Energy = 0

@<TRIPOS>ATOM
      1 O           1.9596    0.0062    0.0000 O.2     1  LIG1       -0.2431
      2 C           1.1346    0.0062    0.0000 C.ar    1  LIG1        0.3640
      3 N           0.6497    0.6737    0.0000 N.ar    1  LIG1       -0.2402
      4 N          -0.1350    0.4187    0.0000 N.ar    1  LIG1       -0.2244
      5 C          -0.8494    0.8312    0.0000 C.ar    1  LIG1        0.0323
      6 C          -1.5639    0.4187    0.0000 C.ar    1  LIG1       -0.0253
      7 C          -1.5639   -0.4063    0.0000 C.ar    1  LIG1        0.0329
      8 N          -0.8494   -0.8188    0.0000 N.ar    1  LIG1       -0.2190
      9 C          -0.1350   -0.4063    0.0000 C.ar    1  LIG1        0.2541
     10 N           0.6497   -0.6612    0.0000 N.ar    1  LIG1       -0.1544
     11 H           0.9842    1.7032    0.0000 H       1  LIG1        0.1922
     12 H          -0.8494    1.9327    0.0000 H       1  LIG1        0.0831
     13 H          -2.5178    0.9695    0.0000 H       1  LIG1        0.0648
     14 H          -2.5178   -0.9571    0.0000 H       1  LIG1        0.0831
@<TRIPOS>BOND
     1     1     2    2
     2     2     3   ar
     3     3     4   ar
     4     4     5   ar
     5     5     6   ar
     6     6     7   ar
     7     7     8   ar
     8     8     9   ar
     9     4     9   ar
    10     9    10   ar
    11     2    10   ar
    12     3    11    1
    13     5    12    1
    14     6    13    1
    15     7    14    1
