@<TRIPOS>MOLECULE
O=c1cnnc2cccnn12
 15 16 0 0 0
SMALL
GASTEIGER
Energy = 0

@<TRIPOS>ATOM
      1 O           0.6153   -1.4668    0.0000 O.2     1  LIG1       -0.2641
      2 C           0.6153   -0.6418    0.0000 C.ar    1  LIG1        0.2931
      3 C           1.3298   -0.2293    0.0000 C.ar    1  LIG1        0.1162
      4 N           1.3298    0.5957    0.0000 N.ar    1  LIG1       -0.1502
      5 N           0.6153    1.0082    0.0000 N.ar    1  LIG1       -0.1294
      6 C          -0.0991    0.5957    0.0000 C.ar    1  LIG1        0.1797
      7 C          -0.8136    1.0082    0.0000 C.ar    1  LIG1       -0.0141
      8 C          -1.5281    0.5957    0.0000 C.ar    1  LIG1       -0.0384
      9 C          -1.5281   -0.2293    0.0000 C.ar    1  LIG1        0.0486
     10 N          -0.8136   -0.6418    0.0000 N.ar    1  LIG1       -0.1702
     11 N          -0.0991   -0.2293    0.0000 N.ar    1  LIG1       -0.1754
     12 H           2.2837   -0.7801    0.0000 H       1  LIG1        0.0904
     13 H          -0.8136    2.1097    0.0000 H       1  LIG1        0.0656
     14 H          -2.4820    1.1465    0.0000 H       1  LIG1        0.0634
     15 H          -2.4820   -0.7801    0.0000 H       1  LIG1        0.0847
@<TRIPOS>BOND
     1     1     2    2
     2     2     3   ar
     3     3     4   ar
     4     4     5   ar
     5     5     6   ar
     6     6     7   ar
     7     7     8   ar
     8     8     9   ar
     9     9    10   ar
    10    10    11   ar
    11     2    11   ar
    12     6    11   ar
    13     3    12    1
    14     7    13    1
    15     8    14    1
    16     9    15    1
