@<TRIPOS>MOLECULE
O=c1nc2[nH]ccnc2c(=O)[nH]1
 16 17 0 0 0
SMALL
GASTEIGER
Energy = 0

@<TRIPOS>ATOM
      1 O           1.8489   -0.9023    0.0000 O.2     1  LIG1       -0.2446
      2 C           1.1344   -0.4898    0.0000 C.ar    1  LIG1        0.3505
      3 N           1.1344    0.3352    0.0000 N.ar    1  LIG1       -0.2717
      4 C           0.4199    0.7477    0.0000 C.ar    1  LIG1        0.2817
      5 O           0.4199    1.5727    0.0000 O.2     1  LIG1       -0.2653
      6 C          -0.2945    0.3352    0.0000 C.ar    1  LIG1        0.1704
      7 N          -1.0090    0.7477    0.0000 N.ar    1  LIG1       -0.2452
      8 C          -1.7235    0.3352    0.0000 C.ar    1  LIG1        0.0445
      9 C          -1.7235   -0.4898    0.0000 C.ar    1  LIG1        0.0216
     10 N          -1.0090   -0.9023    0.0000 N.ar    1  LIG1       -0.3429
     11 C          -0.2945   -0.4898    0.0000 C.ar    1  LIG1        0.1673
     12 N           0.4199   -0.9023    0.0000 N.ar    1  LIG1       -0.1735
     13 H           2.0719    0.8765    0.0000 H       1  LIG1        0.1735
     14 H          -2.6774    0.8860    0.0000 H       1  LIG1        0.0844
     15 H          -2.6774   -1.0406    0.0000 H       1  LIG1        0.0823
     16 H          -1.0090   -1.9848    0.0000 H       1  LIG1        0.1669
@<TRIPOS>BOND
     1     1     2    2
     2     2     3   ar
     3     3     4   ar
     4     4     5    2
     5     4     6   ar
     6     6     7   ar
     7     7     8   ar
     8     8     9   ar
     9     9    10   ar
    10    10    11   ar
    11     6    11   ar
    12    11    12   ar
    13     2    12   ar
    14     3    13    1
    15     8    14    1
    16     9    15    1
    17    10    16    1
