@<TRIPOS>MOLECULE
O=c1ccn2cncnc2n1
 15 16 0 0 0
SMALL
GASTEIGER
Energy = 0

@<TRIPOS>ATOM
      1 O           1.9252   -0.7220    0.0000 O.2     1  LIG1       -0.2657
      2 C           1.2107   -0.3095    0.0000 C.ar    1  LIG1        0.2747
      3 C           1.2107    0.5155    0.0000 C.ar    1  LIG1        0.0214
      4 C           0.4963    0.9280    0.0000 C.ar    1  LIG1        0.0192
      5 N          -0.2182    0.5155    0.0000 N.ar    1  LIG1       -0.2756
      6 C          -0.9327    0.9280    0.0000 C.ar    1  LIG1        0.1043
      7 N          -1.6471    0.5155    0.0000 N.ar    1  LIG1       -0.2255
      8 C          -1.6471   -0.3095    0.0000 C.ar    1  LIG1        0.1214
      9 N          -0.9327   -0.7220    0.0000 N.ar    1  LIG1       -0.2002
     10 C          -0.2182   -0.3095    0.0000 C.ar    1  LIG1        0.2404
     11 N           0.4963   -0.7220    0.0000 N.ar    1  LIG1       -0.1728
     12 H           2.1646    1.0662    0.0000 H       1  LIG1        0.0687
     13 H           0.4963    2.0295    0.0000 H       1  LIG1        0.0816
     14 H          -0.9327    2.0295    0.0000 H       1  LIG1        0.1033
     15 H          -2.6010   -0.8602    0.0000 H       1  LIG1        0.1048
@<TRIPOS>BOND
     1     1     2    2
     2     2     3   ar
     3     3     4   ar
     4     4     5   ar
     5     5     6   ar
     6     6     7   ar
     7     7     8   ar
     8     8     9   ar
     9     9    10   ar
    10     5    10   ar
    11    10    11   ar
    12     2    11   ar
    13     3    12    1
    14     4    13    1
    15     6    14    1
    16     8    15    1
