@<TRIPOS>MOLECULE
Cn1cc2ccc(=O)[nH]c2n1
 18 19 0 0 0
SMALL
GASTEIGER
Energy = 0

@<TRIPOS>ATOM
      1 C           2.2624    0.1139    0.0000 C.3     1  LIG1        0.0303
      2 N           1.4374    0.1139    0.0000 N.ar    1  LIG1       -0.2719
      3 C           0.9525    0.7813    0.0000 C.ar    1  LIG1        0.0344
      4 C           0.1679    0.5264    0.0000 C.ar    1  LIG1        0.0369
      5 C          -0.5466    0.9389    0.0000 C.ar    1  LIG1       -0.0445
      6 C          -1.2611    0.5264    0.0000 C.ar    1  LIG1        0.0035
      7 C          -1.2611   -0.2986    0.0000 C.ar    1  LIG1        0.2503
      8 O          -1.9755   -0.7111    0.0000 O.2     1  LIG1       -0.2679
      9 N          -0.5466   -0.7111    0.0000 N.ar    1  LIG1       -0.3056
     10 C           0.1679   -0.2986    0.0000 C.ar    1  LIG1        0.1624
     11 N           0.9525   -0.5536    0.0000 N.ar    1  LIG1       -0.1532
     12 H           2.6429    1.1885    0.0000 H       1  LIG1        0.0473
     13 H           2.6571   -0.4446   -0.9121 H       1  LIG1        0.0473
     14 H           2.6371   -0.4163    0.9370 H       1  LIG1        0.0473
     15 H           1.2929    1.8289    0.0000 H       1  LIG1        0.0833
     16 H          -0.5466    2.0404    0.0000 H       1  LIG1        0.0627
     17 H          -2.2150    1.0772    0.0000 H       1  LIG1        0.0672
     18 H          -0.5466   -1.7936    0.0000 H       1  LIG1        0.1704
@<TRIPOS>BOND
     1     1     2    1
     2     2     3   ar
     3     3     4   ar
     4     4     5   ar
     5     5     6   ar
     6     6     7   ar
     7     7     8    2
     8     7     9   ar
     9     9    10   ar
    10     4    10   ar
    11    10    11   ar
    12     2    11   ar
    13     1    12    1
    14     1    13    1
    15     1    14    1
    16     3    15    1
    17     5    16    1
    18     6    17    1
    19     9    18    1
