@<TRIPOS>MOLECULE
c1nc2ncc[nH]c2n1
 13 14 0 0 0
SMALL
GASTEIGER
Energy = 0

@<TRIPOS>ATOM
      1 N           0.5671   -0.8250    0.0000 N.ar    1  LIG1       -0.3419
      2 C           1.2815   -0.4125    0.0000 C.ar    1  LIG1        0.0217
      3 C           1.2815    0.4125    0.0000 C.ar    1  LIG1        0.0460
      4 N           0.5671    0.8250    0.0000 N.ar    1  LIG1       -0.2317
      5 C          -0.1474    0.4125    0.0000 C.ar    1  LIG1        0.1972
      6 N          -0.9320    0.6674    0.0000 N.ar    1  LIG1       -0.2132
      7 C          -1.4170   -0.0000    0.0000 C.ar    1  LIG1        0.1209
      8 N          -0.9320   -0.6674    0.0000 N.ar    1  LIG1       -0.2147
      9 C          -0.1474   -0.4125    0.0000 C.ar    1  LIG1        0.1773
     10 H           0.5671   -1.9075    0.0000 H       1  LIG1        0.1669
     11 H           2.2354   -0.9632    0.0000 H       1  LIG1        0.0823
     12 H           2.2354    0.9632    0.0000 H       1  LIG1        0.0845
     13 H          -2.5185    0.0000    0.0000 H       1  LIG1        0.1048
@<TRIPOS>BOND
     1     1     2   ar
     2     2     3   ar
     3     3     4   ar
     4     4     5   ar
     5     5     6   ar
     6     6     7   ar
     7     7     8   ar
     8     8     9   ar
     9     1     9   ar
    10     5     9   ar
    11     1    10    1
    12     2    11    1
    13     3    12    1
    14     7    13    1
