@<TRIPOS>MOLECULE
O=c1nc[nH]c2sncc12
 13 14 0 0 0
SMALL
GASTEIGER
Energy = 0

@<TRIPOS>ATOM
      1 O          -0.6157   -1.5688    0.0000 O.2     1  LIG1       -0.2651
      2 C          -0.6157   -0.7438    0.0000 C.ar    1  LIG1        0.2827
      3 N          -1.3302   -0.3313    0.0000 N.ar    1  LIG1       -0.1990
      4 C          -1.3302    0.4937    0.0000 C.ar    1  LIG1        0.0981
      5 N          -0.6157    0.9062    0.0000 N.ar    1  LIG1       -0.3388
      6 C           0.0988    0.4937    0.0000 C.ar    1  LIG1        0.1110
      7 C           0.0988   -0.3313    0.0000 C.ar    1  LIG1        0.0914
      8 C           0.8834   -0.5862    0.0000 C.ar    1  LIG1        0.0511
      9 N           1.3683    0.0812    0.0000 N.ar    1  LIG1       -0.2159
     10 S           0.8834    0.7486    0.0000 S.2     1  LIG1        0.0298
     11 H          -2.2841    1.0445    0.0000 H       1  LIG1        0.1028
     12 H          -0.6157    1.9887    0.0000 H       1  LIG1        0.1673
     13 H           1.2238   -1.6338    0.0000 H       1  LIG1        0.0845
@<TRIPOS>BOND
     1     1     2    2
     2     2     3   ar
     3     3     4   ar
     4     4     5   ar
     5     5     6   ar
     6     6     7   ar
     7     2     7   ar
     8     7     8   ar
     9     8     9   ar
    10     9    10   ar
    11     6    10   ar
    12     4    11    1
    13     5    12    1
    14     8    13    1
