@<TRIPOS>MOLECULE
c1nnc2ccncn12
 13 14 0 0 0
SMALL
GASTEIGER
Energy = 0

@<TRIPOS>ATOM
      1 C           1.2899    0.4152    0.0000 C.ar    1  LIG1        0.0328
      2 C           0.5754    0.8277    0.0000 C.ar    1  LIG1        0.0011
      3 C          -0.1391    0.4152    0.0000 C.ar    1  LIG1        0.1635
      4 N          -0.9237    0.6701    0.0000 N.ar    1  LIG1       -0.1296
      5 N          -1.4086    0.0027    0.0000 N.ar    1  LIG1       -0.1372
      6 C          -0.9237   -0.6647    0.0000 C.ar    1  LIG1        0.1253
      7 N          -0.1391   -0.4098    0.0000 N.ar    1  LIG1       -0.2721
      8 C           0.5754   -0.8223    0.0000 C.ar    1  LIG1        0.1027
      9 N           1.2899   -0.4098    0.0000 N.ar    1  LIG1       -0.2450
     10 H           2.2438    0.9660    0.0000 H       1  LIG1        0.0831
     11 H           0.5754    1.9292    0.0000 H       1  LIG1        0.0670
     12 H          -1.2641   -1.7123    0.0000 H       1  LIG1        0.1052
     13 H           0.5754   -1.9238    0.0000 H       1  LIG1        0.1033
@<TRIPOS>BOND
     1     1     2   ar
     2     2     3   ar
     3     3     4   ar
     4     4     5   ar
     5     5     6   ar
     6     6     7   ar
     7     3     7   ar
     8     7     8   ar
     9     8     9   ar
    10     1     9   ar
    11     1    10    1
    12     2    11    1
    13     6    12    1
    14     8    13    1
