@<TRIPOS>MOLECULE
c1nnc2cnncn12
 12 13 0 0 0
SMALL
GASTEIGER
Energy = 0

@<TRIPOS>ATOM
      1 C           0.5536   -0.8293    0.0000 C.ar    1  LIG1        0.1253
      2 N           1.2681   -0.4168    0.0000 N.ar    1  LIG1       -0.1391
      3 N           1.2681    0.4082    0.0000 N.ar    1  LIG1       -0.1526
      4 C           0.5536    0.8207    0.0000 C.ar    1  LIG1        0.0945
      5 C          -0.1609    0.4082    0.0000 C.ar    1  LIG1        0.1820
      6 N          -0.9455    0.6631    0.0000 N.ar    1  LIG1       -0.1280
      7 N          -1.4304   -0.0043    0.0000 N.ar    1  LIG1       -0.1371
      8 C          -0.9455   -0.6717    0.0000 C.ar    1  LIG1        0.1253
      9 N          -0.1609   -0.4168    0.0000 N.ar    1  LIG1       -0.2694
     10 H           0.5536   -1.9308    0.0000 H       1  LIG1        0.1052
     11 H           0.5536    1.9222    0.0000 H       1  LIG1        0.0886
     12 H          -1.2859   -1.7193    0.0000 H       1  LIG1        0.1052
@<TRIPOS>BOND
     1     1     2   ar
     2     2     3   ar
     3     3     4   ar
     4     4     5   ar
     5     5     6   ar
     6     6     7   ar
     7     7     8   ar
     8     8     9   ar
     9     1     9   ar
    10     5     9   ar
    11     1    10    1
    12     4    11    1
    13     8    12    1
