@<TRIPOS>MOLECULE
Cn1ccc2sncc12
 15 16 0 0 0
SMALL
GASTEIGER
Energy = 0

@<TRIPOS>ATOM
      1 C           1.0715   -1.4113    0.0000 C.3     1  LIG1        0.0119
      2 N           0.8165   -0.6267    0.0000 N.ar    1  LIG1       -0.3480
      3 C           1.3015    0.0408    0.0000 C.ar    1  LIG1        0.0060
      4 C           0.8165    0.7082    0.0000 C.ar    1  LIG1       -0.0284
      5 C           0.0319    0.4533    0.0000 C.ar    1  LIG1        0.0570
      6 C           0.0319   -0.3717    0.0000 C.ar    1  LIG1        0.0759
      7 C          -0.7527   -0.6267    0.0000 C.ar    1  LIG1        0.0607
      8 N          -1.2376    0.0408    0.0000 N.ar    1  LIG1       -0.2161
      9 S          -0.7527    0.7082    0.0000 S.2     1  LIG1        0.0132
     10 H           2.2111   -1.4411    0.0000 H       1  LIG1        0.0456
     11 H           0.6624   -1.9593   -0.9121 H       1  LIG1        0.0456
     12 H           0.6830   -1.9316    0.9370 H       1  LIG1        0.0456
     13 H           2.4030    0.0408    0.0000 H       1  LIG1        0.0809
     14 H           1.1568    1.7558    0.0000 H       1  LIG1        0.0644
     15 H          -1.0931   -1.6743    0.0000 H       1  LIG1        0.0858
@<TRIPOS>BOND
     1     1     2    1
     2     2     3   ar
     3     3     4   ar
     4     4     5   ar
     5     5     6   ar
     6     2     6   ar
     7     6     7   ar
     8     7     8   ar
     9     8     9   ar
    10     5     9   ar
    11     1    10    1
    12     1    11    1
    13     1    12    1
    14     3    13    1
    15     4    14    1
    16     7    15    1
