@<TRIPOS>MOLECULE
c1occ2ncncc12
 13 14 0 0 0
SMALL
GASTEIGER
Energy = 0

@<TRIPOS>ATOM
      1 O           1.4126    0.0071    0.0000 O.2     1  LIG1       -0.4682
      2 C           0.9277    0.6745    0.0000 C.ar    1  LIG1        0.1024
      3 C           0.1431    0.4196    0.0000 C.ar    1  LIG1        0.0562
      4 C          -0.5714    0.8321    0.0000 C.ar    1  LIG1        0.0415
      5 N          -1.2859    0.4196    0.0000 N.ar    1  LIG1       -0.2430
      6 C          -1.2859   -0.4054    0.0000 C.ar    1  LIG1        0.1167
      7 N          -0.5714   -0.8179    0.0000 N.ar    1  LIG1       -0.2323
      8 C           0.1431   -0.4054    0.0000 C.ar    1  LIG1        0.1117
      9 C           0.9277   -0.6603    0.0000 C.ar    1  LIG1        0.1177
     10 H           1.2681    1.7221    0.0000 H       1  LIG1        0.1036
     11 H          -0.5714    1.9336    0.0000 H       1  LIG1        0.0838
     12 H          -2.2398   -0.9562    0.0000 H       1  LIG1        0.1047
     13 H           1.2681   -1.7079    0.0000 H       1  LIG1        0.1051
@<TRIPOS>BOND
     1     1     2   ar
     2     2     3   ar
     3     3     4   ar
     4     4     5   ar
     5     5     6   ar
     6     6     7   ar
     7     7     8   ar
     8     3     8   ar
     9     8     9   ar
    10     1     9   ar
    11     2    10    1
    12     4    11    1
    13     6    12    1
    14     9    13    1
