@<TRIPOS>MOLECULE
O=c1[nH]c(=O)c2cc[nH]c2[nH]1
 16 17 0 0 0
SMALL
GASTEIGER
Energy = 0

@<TRIPOS>ATOM
      1 O          -1.6928   -0.9006    0.0000 O.2     1  LIG1       -0.2466
      2 C          -0.9783   -0.4881    0.0000 C.ar    1  LIG1        0.3282
      3 N          -0.9783    0.3369    0.0000 N.ar    1  LIG1       -0.2745
      4 C          -0.2638    0.7494    0.0000 C.ar    1  LIG1        0.2632
      5 O          -0.2638    1.5744    0.0000 O.2     1  LIG1       -0.2670
      6 C           0.4506    0.3369    0.0000 C.ar    1  LIG1        0.0812
      7 C           0.4506   -0.4881    0.0000 C.ar    1  LIG1        0.1250
      8 N           1.2352   -0.7430    0.0000 N.ar    1  LIG1       -0.3471
      9 C           1.7202   -0.0756    0.0000 C.ar    1  LIG1        0.0042
     10 C           1.2352    0.5918    0.0000 C.ar    1  LIG1       -0.0299
     11 N          -0.2638   -0.9006    0.0000 N.ar    1  LIG1       -0.2934
     12 H          -1.9158    0.8782    0.0000 H       1  LIG1        0.1734
     13 H           1.5697   -1.7725    0.0000 H       1  LIG1        0.1667
     14 H           2.8217   -0.0756    0.0000 H       1  LIG1        0.0807
     15 H           1.5755    1.6394    0.0000 H       1  LIG1        0.0641
     16 H          -0.2638   -1.9831    0.0000 H       1  LIG1        0.1718
@<TRIPOS>BOND
     1     1     2    2
     2     2     3   ar
     3     3     4   ar
     4     4     5    2
     5     4     6   ar
     6     6     7   ar
     7     7     8   ar
     8     8     9   ar
     9     9    10   ar
    10     6    10   ar
    11     7    11   ar
    12     2    11   ar
    13     3    12    1
    14     8    13    1
    15     9    14    1
    16    10    15    1
    17    11    16    1
