@<TRIPOS>MOLECULE
Cn1ncc2[nH]ccc2c1=O
 18 19 0 0 0
SMALL
GASTEIGER
Energy = 0

@<TRIPOS>ATOM
      1 C          -1.7303   -0.5789    0.0000 C.3     1  LIG1        0.0340
      2 N          -1.0158   -0.1664    0.0000 N.ar    1  LIG1       -0.2320
      3 N          -1.0158    0.6586    0.0000 N.ar    1  LIG1       -0.1748
      4 C          -0.3013    1.0711    0.0000 C.ar    1  LIG1        0.0721
      5 C           0.4131    0.6586    0.0000 C.ar    1  LIG1        0.0717
      6 C           0.4131   -0.1664    0.0000 C.ar    1  LIG1        0.0670
      7 C           1.1978   -0.4213    0.0000 C.ar    1  LIG1       -0.0314
      8 C           1.6827    0.2461    0.0000 C.ar    1  LIG1        0.0029
      9 N           1.1978    0.9136    0.0000 N.ar    1  LIG1       -0.3593
     10 C          -0.3013   -0.5789    0.0000 C.ar    1  LIG1        0.2762
     11 O          -0.3013   -1.4039    0.0000 O.2     1  LIG1       -0.2655
     12 H          -2.5971    0.1615    0.0000 H       1  LIG1        0.0474
     13 H          -1.7929   -1.2599    0.9121 H       1  LIG1        0.0474
     14 H          -1.7897   -1.2255   -0.9370 H       1  LIG1        0.0474
     15 H          -0.3013    2.1726    0.0000 H       1  LIG1        0.0869
     16 H           1.5382   -1.4689    0.0000 H       1  LIG1        0.0640
     17 H           2.7842    0.2461    0.0000 H       1  LIG1        0.0807
     18 H           1.5323    1.9431    0.0000 H       1  LIG1        0.1654
@<TRIPOS>BOND
     1     1     2    1
     2     2     3   ar
     3     3     4   ar
     4     4     5   ar
     5     5     6   ar
     6     6     7   ar
     7     7     8   ar
     8     8     9   ar
     9     5     9   ar
    10     6    10   ar
    11     2    10   ar
    12    10    11    2
    13     1    12    1
    14     1    13    1
    15     1    14    1
    16     4    15    1
    17     7    16    1
    18     8    17    1
    19     9    18    1
