@<TRIPOS>MOLECULE
Cn1cnc2ccnc2c1
 17 18 0 0 0
SMALL
GASTEIGER
Energy = 0

@<TRIPOS>ATOM
      1 C           1.7798   -0.7424    0.0000 C.3     1  LIG1        0.0127
      2 N           1.0653   -0.3299    0.0000 N.ar    1  LIG1       -0.3392
      3 C           1.0653    0.4951    0.0000 C.ar    1  LIG1        0.0964
      4 N           0.3509    0.9076    0.0000 N.ar    1  LIG1       -0.2356
      5 C          -0.3636    0.4951    0.0000 C.ar    1  LIG1        0.0936
      6 C          -1.1482    0.7501    0.0000 C.ar    1  LIG1       -0.0160
      7 C          -1.6331    0.0826    0.0000 C.ar    1  LIG1        0.0304
      8 N          -1.1482   -0.5848    0.0000 N.ar    1  LIG1       -0.2519
      9 C          -0.3636   -0.3299    0.0000 C.ar    1  LIG1        0.1053
     10 C           0.3509   -0.7424    0.0000 C.ar    1  LIG1        0.0330
     11 H           2.6466   -0.0020    0.0000 H       1  LIG1        0.0456
     12 H           1.8424   -1.4234   -0.9121 H       1  LIG1        0.0456
     13 H           1.8392   -1.3890    0.9370 H       1  LIG1        0.0456
     14 H           2.0192    1.0458    0.0000 H       1  LIG1        0.1029
     15 H          -1.4886    1.7977    0.0000 H       1  LIG1        0.0655
     16 H          -2.7346    0.0826    0.0000 H       1  LIG1        0.0830
     17 H           0.3509   -1.8439    0.0000 H       1  LIG1        0.0831
@<TRIPOS>BOND
     1     1     2    1
     2     2     3   ar
     3     3     4   ar
     4     4     5   ar
     5     5     6   ar
     6     6     7   ar
     7     7     8   ar
     8     8     9   ar
     9     5     9   ar
    10     9    10   ar
    11     2    10   ar
    12     1    11    1
    13     1    12    1
    14     1    13    1
    15     3    14    1
    16     6    15    1
    17     7    16    1
    18    10    17    1
