@<TRIPOS>MOLECULE
Cn1ccn2c(=O)[nH]c(=O)cc12
 19 20 0 0 0
SMALL
GASTEIGER
Energy = 0

@<TRIPOS>ATOM
      1 C           1.3680   -1.4272    0.0000 C.3     1  LIG1        0.0132
      2 N           1.1130   -0.6426    0.0000 N.ar    1  LIG1       -0.3348
      3 C           1.5979    0.0248    0.0000 C.ar    1  LIG1        0.0228
      4 C           1.1130    0.6923    0.0000 C.ar    1  LIG1        0.0321
      5 N           0.3284    0.4373    0.0000 N.ar    1  LIG1       -0.2532
      6 C          -0.3861    0.8498    0.0000 C.ar    1  LIG1        0.3349
      7 O          -0.3861    1.6748    0.0000 O.2     1  LIG1       -0.2461
      8 N          -1.1006    0.4373    0.0000 N.ar    1  LIG1       -0.2746
      9 C          -1.1006   -0.3877    0.0000 C.ar    1  LIG1        0.2560
     10 O          -1.8150   -0.8002    0.0000 O.2     1  LIG1       -0.2677
     11 C          -0.3861   -0.8002    0.0000 C.ar    1  LIG1        0.0441
     12 C           0.3284   -0.3877    0.0000 C.ar    1  LIG1        0.1268
     13 H           2.5076   -1.4570    0.0000 H       1  LIG1        0.0456
     14 H           0.9589   -1.9752   -0.9121 H       1  LIG1        0.0456
     15 H           0.9795   -1.9475    0.9370 H       1  LIG1        0.0456
     16 H           2.6994    0.0248    0.0000 H       1  LIG1        0.0824
     17 H           1.4534    1.7399    0.0000 H       1  LIG1        0.0829
     18 H          -2.0381    0.9786    0.0000 H       1  LIG1        0.1734
     19 H          -0.3861   -1.9017    0.0000 H       1  LIG1        0.0708
@<TRIPOS>BOND
     1     1     2    1
     2     2     3   ar
     3     3     4   ar
     4     4     5   ar
     5     5     6   ar
     6     6     7    2
     7     6     8   ar
     8     8     9   ar
     9     9    10    2
    10     9    11   ar
    11    11    12   ar
    12     2    12   ar
    13     5    12   ar
    14     1    13    1
    15     1    14    1
    16     1    15    1
    17     3    16    1
    18     4    17    1
    19     8    18    1
    20    11    19    1
