@<TRIPOS>MOLECULE
Cn1ncn2cncc2c1=O
 17 18 0 0 0
SMALL
GASTEIGER
Energy = 0

@<TRIPOS>ATOM
      1 C           1.7427   -0.5787    0.0000 C.3     1  LIG1        0.0341
      2 N           1.0282   -0.1662    0.0000 N.ar    1  LIG1       -0.2295
      3 N           1.0282    0.6588    0.0000 N.ar    1  LIG1       -0.1584
      4 C           0.3138    1.0713    0.0000 C.ar    1  LIG1        0.1223
      5 N          -0.4007    0.6588    0.0000 N.ar    1  LIG1       -0.2834
      6 C          -1.1853    0.9137    0.0000 C.ar    1  LIG1        0.1017
      7 N          -1.6702    0.2463    0.0000 N.ar    1  LIG1       -0.2429
      8 C          -1.1853   -0.4212    0.0000 C.ar    1  LIG1        0.0585
      9 C          -0.4007   -0.1662    0.0000 C.ar    1  LIG1        0.1332
     10 C           0.3138   -0.5787    0.0000 C.ar    1  LIG1        0.2925
     11 O           0.3138   -1.4037    0.0000 O.2     1  LIG1       -0.2639
     12 H           2.6095    0.1617    0.0000 H       1  LIG1        0.0474
     13 H           1.8053   -1.2597   -0.9121 H       1  LIG1        0.0474
     14 H           1.8021   -1.2253    0.9370 H       1  LIG1        0.0474
     15 H           0.3138    2.1728    0.0000 H       1  LIG1        0.1051
     16 H          -1.5257    1.9613    0.0000 H       1  LIG1        0.1032
     17 H          -1.5257   -1.4688    0.0000 H       1  LIG1        0.0853
@<TRIPOS>BOND
     1     1     2    1
     2     2     3   ar
     3     3     4   ar
     4     4     5   ar
     5     5     6   ar
     6     6     7   ar
     7     7     8   ar
     8     8     9   ar
     9     5     9   ar
    10     9    10   ar
    11     2    10   ar
    12    10    11    2
    13     1    12    1
    14     1    13    1
    15     1    14    1
    16     4    15    1
    17     6    16    1
    18     8    17    1
