@<TRIPOS>MOLECULE
c1cc2ccncc2cn1
 16 17 0 0 0
SMALL
GASTEIGER
Energy = 0

@<TRIPOS>ATOM
      1 C           1.4289    0.4258    0.0000 C.ar    1  LIG1        0.0281
      2 C           0.7145    0.8383    0.0000 C.ar    1  LIG1       -0.0358
      3 C          -0.0000    0.4258    0.0000 C.ar    1  LIG1       -0.0121
      4 C          -0.7145    0.8383    0.0000 C.ar    1  LIG1       -0.0358
      5 C          -1.4289    0.4258    0.0000 C.ar    1  LIG1        0.0281
      6 N          -1.4289   -0.3992    0.0000 N.ar    1  LIG1       -0.2626
      7 C          -0.7145   -0.8117    0.0000 C.ar    1  LIG1        0.0367
      8 C          -0.0000   -0.3992    0.0000 C.ar    1  LIG1        0.0183
      9 C           0.7145   -0.8117    0.0000 C.ar    1  LIG1        0.0367
     10 N           1.4289   -0.3992    0.0000 N.ar    1  LIG1       -0.2626
     11 H           2.3828    0.9765    0.0000 H       1  LIG1        0.0830
     12 H           0.7145    1.9398    0.0000 H       1  LIG1        0.0639
     13 H          -0.7145    1.9398    0.0000 H       1  LIG1        0.0639
     14 H          -2.3828    0.9765    0.0000 H       1  LIG1        0.0830
     15 H          -0.7145   -1.9132    0.0000 H       1  LIG1        0.0836
     16 H           0.7145   -1.9132    0.0000 H       1  LIG1        0.0836
@<TRIPOS>BOND
     1     1     2   ar
     2     2     3   ar
     3     3     4   ar
     4     4     5   ar
     5     5     6   ar
     6     6     7   ar
     7     7     8   ar
     8     3     8   ar
     9     8     9   ar
    10     9    10   ar
    11     1    10   ar
    12     1    11    1
    13     2    12    1
    14     4    13    1
    15     5    14    1
    16     7    15    1
    17     9    16    1
