@<TRIPOS>MOLECULE
O=c1cc2[nH]cnc2c[nH]1
 15 16 0 0 0
SMALL
GASTEIGER
Energy = 0

@<TRIPOS>ATOM
      1 O           1.7482   -0.7299    0.0000 O.2     1  LIG1       -0.2678
      2 C           1.0338   -0.3174    0.0000 C.ar    1  LIG1        0.2508
      3 N           1.0338    0.5076    0.0000 N.ar    1  LIG1       -0.3269
      4 C           0.3193    0.9201    0.0000 C.ar    1  LIG1        0.0324
      5 C          -0.3952    0.5076    0.0000 C.ar    1  LIG1        0.1049
      6 N          -1.1798    0.7626    0.0000 N.ar    1  LIG1       -0.2345
      7 C          -1.6647    0.0951    0.0000 C.ar    1  LIG1        0.0945
      8 N          -1.1798   -0.5723    0.0000 N.ar    1  LIG1       -0.3442
      9 C          -0.3952   -0.3174    0.0000 C.ar    1  LIG1        0.0726
     10 C           0.3193   -0.7299    0.0000 C.ar    1  LIG1        0.0282
     11 H           1.9713    1.0489    0.0000 H       1  LIG1        0.1684
     12 H           0.3193    2.0216    0.0000 H       1  LIG1        0.0830
     13 H          -2.7662    0.0951    0.0000 H       1  LIG1        0.1027
     14 H          -1.5143   -1.6018    0.0000 H       1  LIG1        0.1668
     15 H           0.3193   -1.8314    0.0000 H       1  LIG1        0.0693
@<TRIPOS>BOND
     1     1     2    2
     2     2     3   ar
     3     3     4   ar
     4     4     5   ar
     5     5     6   ar
     6     6     7   ar
     7     7     8   ar
     8     8     9   ar
     9     5     9   ar
    10     9    10   ar
    11     2    10   ar
    12     3    11    1
    13     4    12    1
    14     7    13    1
    15     8    14    1
    16    10    15    1
