@<TRIPOS>MOLECULE
O=c1[nH]cnc2ccccc12
 17 18 0 0 0
SMALL
GASTEIGER
Energy = 0

@<TRIPOS>ATOM
      1 O           0.6023   -1.4674    0.0000 O.2     1  LIG1       -0.2672
      2 C           0.6023   -0.6424    0.0000 C.ar    1  LIG1        0.2590
      3 N           1.3168   -0.2299    0.0000 N.ar    1  LIG1       -0.3129
      4 C           1.3168    0.5951    0.0000 C.ar    1  LIG1        0.0966
      5 N           0.6023    1.0076    0.0000 N.ar    1  LIG1       -0.2372
      6 C          -0.1121    0.5951    0.0000 C.ar    1  LIG1        0.0778
      7 C          -0.8266    1.0076    0.0000 C.ar    1  LIG1       -0.0355
      8 C          -1.5411    0.5951    0.0000 C.ar    1  LIG1       -0.0597
      9 C          -1.5411   -0.2299    0.0000 C.ar    1  LIG1       -0.0609
     10 C          -0.8266   -0.6424    0.0000 C.ar    1  LIG1       -0.0474
     11 C          -0.1121   -0.2299    0.0000 C.ar    1  LIG1        0.0647
     12 H           2.2543   -0.7712    0.0000 H       1  LIG1        0.1698
     13 H           2.2707    1.1459    0.0000 H       1  LIG1        0.1028
     14 H          -0.8266    2.1091    0.0000 H       1  LIG1        0.0639
     15 H          -2.4950    1.1459    0.0000 H       1  LIG1        0.0618
     16 H          -2.4950   -0.7807    0.0000 H       1  LIG1        0.0618
     17 H          -0.8266   -1.7439    0.0000 H       1  LIG1        0.0626
@<TRIPOS>BOND
     1     1     2    2
     2     2     3   ar
     3     3     4   ar
     4     4     5   ar
     5     5     6   ar
     6     6     7   ar
     7     7     8   ar
     8     8     9   ar
     9     9    10   ar
    10    10    11   ar
    11     2    11   ar
    12     6    11   ar
    13     3    12    1
    14     4    13    1
    15     7    14    1
    16     8    15    1
    17     9    16    1
    18    10    17    1
