@<TRIPOS>MOLECULE
Cn1cnc2cnc(=O)[nH]c12
 17 18 0 0 0
SMALL
GASTEIGER
Energy = 0

@<TRIPOS>ATOM
      1 C           1.3196   -1.2337    0.0000 C.3     1  LIG1        0.0146
      2 N           1.0646   -0.4491    0.0000 N.ar    1  LIG1       -0.3195
      3 C           1.5495    0.2184    0.0000 C.ar    1  LIG1        0.0980
      4 N           1.0646    0.8858    0.0000 N.ar    1  LIG1       -0.2326
      5 C           0.2800    0.6309    0.0000 C.ar    1  LIG1        0.1242
      6 C           0.2800   -0.1941    0.0000 C.ar    1  LIG1        0.1434
      7 N          -0.4345   -0.6066    0.0000 N.ar    1  LIG1       -0.2906
      8 C          -1.1489   -0.1941    0.0000 C.ar    1  LIG1        0.3474
      9 O          -1.8634   -0.6066    0.0000 O.2     1  LIG1       -0.2447
     10 N          -1.1489    0.6309    0.0000 N.ar    1  LIG1       -0.1993
     11 C          -0.4345    1.0434    0.0000 C.ar    1  LIG1        0.0619
     12 H           2.4592   -1.2635    0.0000 H       1  LIG1        0.0457
     13 H           0.9105   -1.7817   -0.9121 H       1  LIG1        0.0457
     14 H           0.9311   -1.7540    0.9370 H       1  LIG1        0.0457
     15 H           2.6510    0.2184    0.0000 H       1  LIG1        0.1029
     16 H          -0.4345   -1.6891    0.0000 H       1  LIG1        0.1719
     17 H          -0.4345    2.1449    0.0000 H       1  LIG1        0.0854
@<TRIPOS>BOND
     1     1     2    1
     2     2     3   ar
     3     3     4   ar
     4     4     5   ar
     5     5     6   ar
     6     2     6   ar
     7     6     7   ar
     8     7     8   ar
     9     8     9    2
    10     8    10   ar
    11    10    11   ar
    12     5    11   ar
    13     1    12    1
    14     1    13    1
    15     1    14    1
    16     3    15    1
    17     7    16    1
    18    11    17    1
