@<TRIPOS>MOLECULE
O=c1ncnc2occn12
 13 14 0 0 0
SMALL
GASTEIGER
Energy = 0

@<TRIPOS>ATOM
      1 O           0.4909   -1.4730    0.0000 O.2     1  LIG1       -0.2439
      2 C           0.4909   -0.6480    0.0000 C.ar    1  LIG1        0.3578
      3 N           1.2054   -0.2355    0.0000 N.ar    1  LIG1       -0.1810
      4 C           1.2054    0.5895    0.0000 C.ar    1  LIG1        0.1267
      5 N           0.4909    1.0020    0.0000 N.ar    1  LIG1       -0.1841
      6 C          -0.2235    0.5895    0.0000 C.ar    1  LIG1        0.3126
      7 O          -1.0082    0.8445    0.0000 O.2     1  LIG1       -0.4308
      8 C          -1.4931    0.1770    0.0000 C.ar    1  LIG1        0.1125
      9 C          -1.0082   -0.4904    0.0000 C.ar    1  LIG1        0.0539
     10 N          -0.2235   -0.2355    0.0000 N.ar    1  LIG1       -0.2181
     11 H           2.1593    1.1403    0.0000 H       1  LIG1        0.1050
     12 H          -2.5946    0.1770    0.0000 H       1  LIG1        0.1046
     13 H          -1.3486   -1.5380    0.0000 H       1  LIG1        0.0847
@<TRIPOS>BOND
     1     1     2    2
     2     2     3   ar
     3     3     4   ar
     4     4     5   ar
     5     5     6   ar
     6     6     7   ar
     7     7     8   ar
     8     8     9   ar
     9     9    10   ar
    10     2    10   ar
    11     6    10   ar
    12     4    11    1
    13     8    12    1
    14     9    13    1
