@<TRIPOS>MOLECULE
Cn1cnc(=O)[nH]c1=O
 14 14 0 0 0
SMALL
GASTEIGER
Energy = 0

@<TRIPOS>ATOM
      1 C           0.1873   -1.5958    0.0000 C.3     1  LIG1        0.0175
      2 N           0.1873   -0.7708    0.0000 N.ar    1  LIG1       -0.2874
      3 C           0.9018   -0.3583    0.0000 C.ar    1  LIG1        0.1049
      4 N           0.9018    0.4667    0.0000 N.ar    1  LIG1       -0.1832
      5 C           0.1873    0.8792    0.0000 C.ar    1  LIG1        0.3510
      6 O           0.1873    1.7042    0.0000 O.2     1  LIG1       -0.2445
      7 N          -0.5272    0.4667    0.0000 N.ar    1  LIG1       -0.2585
      8 C          -0.5272   -0.3583    0.0000 C.ar    1  LIG1        0.3313
      9 O          -1.2416   -0.7708    0.0000 O.2     1  LIG1       -0.2464
     10 H           1.2619   -1.9763    0.0000 H       1  LIG1        0.0457
     11 H          -0.3712   -1.9905   -0.9121 H       1  LIG1        0.0457
     12 H          -0.3429   -1.9705    0.9370 H       1  LIG1        0.0457
     13 H           1.8557   -0.9091    0.0000 H       1  LIG1        0.1032
     14 H          -1.4647    1.0080    0.0000 H       1  LIG1        0.1750
@<TRIPOS>BOND
     1     1     2    1
     2     2     3   ar
     3     3     4   ar
     4     4     5   ar
     5     5     6    2
     6     5     7   ar
     7     7     8   ar
     8     2     8   ar
     9     8     9    2
    10     1    10    1
    11     1    11    1
    12     1    12    1
    13     3    13    1
    14     7    14    1
