@<TRIPOS>MOLECULE
Cn1cnnc1
 11 11 0 0 0
SMALL
GASTEIGER
Energy = 0

@<TRIPOS>ATOM
      1 C          -1.3029   -0.0000    0.0000 C.3     1  LIG1        0.0141
      2 N          -0.4779   -0.0000    0.0000 N.ar    1  LIG1       -0.3230
      3 C           0.0070   -0.6674    0.0000 C.ar    1  LIG1        0.1194
      4 N           0.7916   -0.4125    0.0000 N.ar    1  LIG1       -0.1382
      5 N           0.7916    0.4125    0.0000 N.ar    1  LIG1       -0.1382
      6 C           0.0070    0.6674    0.0000 C.ar    1  LIG1        0.1194
      7 H          -1.6834   -1.0746    0.0000 H       1  LIG1        0.0456
      8 H          -1.6976    0.5585   -0.9121 H       1  LIG1        0.0456
      9 H          -1.6776    0.5302    0.9370 H       1  LIG1        0.0456
     10 H          -0.3334   -1.7150    0.0000 H       1  LIG1        0.1048
     11 H          -0.3334    1.7150    0.0000 H       1  LIG1        0.1048
@<TRIPOS>BOND
     1     1     2    1
     2     2     3   ar
     3     3     4   ar
     4     4     5   ar
     5     5     6   ar
     6     2     6   ar
     7     1     7    1
     8     1     8    1
     9     1     9    1
    10     3    10    1
    11     6    11    1
