@<TRIPOS>MOLECULE
O=c1[nH]c(=O)c2ccncc2[nH]1
 17 18 0 0 0
SMALL
GASTEIGER
Energy = 0

@<TRIPOS>ATOM
      1 O           1.8452   -0.8981    0.0000 O.2     1  LIG1       -0.2467
      2 C           1.1307   -0.4856    0.0000 C.ar    1  LIG1        0.3272
      3 N           1.1307    0.3394    0.0000 N.ar    1  LIG1       -0.2746
      4 C           0.4162    0.7519    0.0000 C.ar    1  LIG1        0.2618
      5 O           0.4162    1.5769    0.0000 O.2     1  LIG1       -0.2671
      6 C          -0.2982    0.3394    0.0000 C.ar    1  LIG1        0.0657
      7 C          -1.0127    0.7519    0.0000 C.ar    1  LIG1       -0.0293
      8 C          -1.7272    0.3394    0.0000 C.ar    1  LIG1        0.0284
      9 N          -1.7272   -0.4856    0.0000 N.ar    1  LIG1       -0.2612
     10 C          -1.0127   -0.8981    0.0000 C.ar    1  LIG1        0.0517
     11 C          -0.2982   -0.4856    0.0000 C.ar    1  LIG1        0.0738
     12 N           0.4162   -0.8981    0.0000 N.ar    1  LIG1       -0.3058
     13 H           2.0682    0.8807    0.0000 H       1  LIG1        0.1734
     14 H          -1.0127    1.8534    0.0000 H       1  LIG1        0.0641
     15 H          -2.6811    0.8902    0.0000 H       1  LIG1        0.0830
     16 H          -1.0127   -1.9996    0.0000 H       1  LIG1        0.0851
     17 H           0.4162   -1.9806    0.0000 H       1  LIG1        0.1704
@<TRIPOS>BOND
     1     1     2    2
     2     2     3   ar
     3     3     4   ar
     4     4     5    2
     5     4     6   ar
     6     6     7   ar
     7     7     8   ar
     8     8     9   ar
     9     9    10   ar
    10    10    11   ar
    11     6    11   ar
    12    11    12   ar
    13     2    12   ar
    14     3    13    1
    15     7    14    1
    16     8    15    1
    17    10    16    1
    18    12    17    1
