@<TRIPOS>MOLECULE
c1[nH]cc2cnccc12
 15 16 0 0 0
SMALL
GASTEIGER
Energy = 0

@<TRIPOS>ATOM
      1 N           1.4275    0.0073    0.0000 N.ar    1  LIG1       -0.3658
      2 C           0.9426    0.6748    0.0000 C.ar    1  LIG1        0.0095
      3 C           0.1580    0.4198    0.0000 C.ar    1  LIG1        0.0023
      4 C          -0.5565    0.8323    0.0000 C.ar    1  LIG1       -0.0344
      5 C          -1.2709    0.4198    0.0000 C.ar    1  LIG1        0.0282
      6 N          -1.2709   -0.4052    0.0000 N.ar    1  LIG1       -0.2626
      7 C          -0.5565   -0.8177    0.0000 C.ar    1  LIG1        0.0367
      8 C           0.1580   -0.4052    0.0000 C.ar    1  LIG1        0.0175
      9 C           0.9426   -0.6601    0.0000 C.ar    1  LIG1        0.0109
     10 H           2.5100    0.0073    0.0000 H       1  LIG1        0.1648
     11 H           1.2830    1.7224    0.0000 H       1  LIG1        0.0813
     12 H          -0.5565    1.9338    0.0000 H       1  LIG1        0.0639
     13 H          -2.2248    0.9705    0.0000 H       1  LIG1        0.0830
     14 H          -0.5565   -1.9192    0.0000 H       1  LIG1        0.0836
     15 H           1.2830   -1.7077    0.0000 H       1  LIG1        0.0813
@<TRIPOS>BOND
     1     1     2   ar
     2     2     3   ar
     3     3     4   ar
     4     4     5   ar
     5     5     6   ar
     6     6     7   ar
     7     7     8   ar
     8     3     8   ar
     9     8     9   ar
    10     1     9   ar
    11     1    10    1
    12     2    11    1
    13     4    12    1
    14     5    13    1
    15     7    14    1
    16     9    15    1
