@<TRIPOS>MOLECULE
Cn1c(=O)c2[nH]cc[nH]c2c1=O
 19 20 0 0 0
SMALL
GASTEIGER
Energy = 0

@<TRIPOS>ATOM
      1 C           1.8370    0.0000    0.0000 C.3     1  LIG1        0.0183
      2 N           1.0120    0.0000    0.0000 N.ar    1  LIG1       -0.2755
      3 C           0.5271    0.6674    0.0000 C.ar    1  LIG1        0.2794
      4 O           0.7820    1.4521    0.0000 O.2     1  LIG1       -0.2653
      5 C          -0.2575    0.4125    0.0000 C.ar    1  LIG1        0.1336
      6 C          -0.2575   -0.4125    0.0000 C.ar    1  LIG1        0.1336
      7 N          -0.9720   -0.8250    0.0000 N.ar    1  LIG1       -0.3539
      8 C          -1.6865   -0.4125    0.0000 C.ar    1  LIG1        0.0183
      9 C          -1.6865    0.4125    0.0000 C.ar    1  LIG1        0.0183
     10 N          -0.9720    0.8250    0.0000 N.ar    1  LIG1       -0.3539
     11 C           0.5271   -0.6674    0.0000 C.ar    1  LIG1        0.2794
     12 O           0.7820   -1.4521    0.0000 O.2     1  LIG1       -0.2653
     13 H           2.2175    1.0746    0.0000 H       1  LIG1        0.0458
     14 H           2.2317   -0.5585   -0.9121 H       1  LIG1        0.0458
     15 H           2.2117   -0.5302    0.9370 H       1  LIG1        0.0458
     16 H          -0.9720   -1.9075    0.0000 H       1  LIG1        0.1656
     17 H          -2.6404   -0.9633    0.0000 H       1  LIG1        0.0822
     18 H          -2.6404    0.9633    0.0000 H       1  LIG1        0.0822
     19 H          -0.9720    1.9075    0.0000 H       1  LIG1        0.1656
@<TRIPOS>BOND
     1     1     2    1
     2     2     3   ar
     3     3     4    2
     4     3     5   ar
     5     5     6   ar
     6     6     7   ar
     7     7     8   ar
     8     8     9   ar
     9     9    10   ar
    10     5    10   ar
    11     6    11   ar
    12     2    11   ar
    13    11    12    2
    14     1    13    1
    15     1    14    1
    16     1    15    1
    17     7    16    1
    18     8    17    1
    19     9    18    1
    20    10    19    1
