@<TRIPOS>MOLECULE
O=c1ncc2c(=O)nc[nH]c2[nH]1
 16 17 0 0 0
SMALL
GASTEIGER
Energy = 0

@<TRIPOS>ATOM
      1 O           2.0006    0.8972    0.0000 O.2     1  LIG1       -0.2447
      2 C           1.2861    0.4847    0.0000 C.ar    1  LIG1        0.3473
      3 N           0.5717    0.8972    0.0000 N.ar    1  LIG1       -0.2919
      4 C          -0.1428    0.4847    0.0000 C.ar    1  LIG1        0.1276
      5 C          -0.1428   -0.3403    0.0000 C.ar    1  LIG1        0.0998
      6 C           0.5717   -0.7528    0.0000 C.ar    1  LIG1        0.0489
      7 N           1.2861   -0.3403    0.0000 N.ar    1  LIG1       -0.2006
      8 C          -0.8573   -0.7528    0.0000 C.ar    1  LIG1        0.2836
      9 O          -0.8573   -1.5778    0.0000 O.2     1  LIG1       -0.2650
     10 N          -1.5718   -0.3403    0.0000 N.ar    1  LIG1       -0.1989
     11 C          -1.5718    0.4847    0.0000 C.ar    1  LIG1        0.0987
     12 N          -0.8573    0.8972    0.0000 N.ar    1  LIG1       -0.3316
     13 H           0.5717    1.9797    0.0000 H       1  LIG1        0.1719
     14 H           0.5717   -1.8543    0.0000 H       1  LIG1        0.0840
     15 H          -2.5257    1.0355    0.0000 H       1  LIG1        0.1028
     16 H          -0.8573    1.9797    0.0000 H       1  LIG1        0.1681
@<TRIPOS>BOND
     1     1     2    2
     2     2     3   ar
     3     3     4   ar
     4     4     5   ar
     5     5     6   ar
     6     6     7   ar
     7     2     7   ar
     8     5     8   ar
     9     8     9    2
    10     8    10   ar
    11    10    11   ar
    12    11    12   ar
    13     4    12   ar
    14     3    13    1
    15     6    14    1
    16    11    15    1
    17    12    16    1
