@<TRIPOS>MOLECULE
Cn1c(=O)ccc2nccnc12
 19 20 0 0 0
SMALL
GASTEIGER
Energy = 0

@<TRIPOS>ATOM
      1 C           0.4455   -1.4251    0.0000 C.3     1  LIG1        0.0167
      2 N           0.4455   -0.6001    0.0000 N.ar    1  LIG1       -0.2947
      3 C           1.1600   -0.1876    0.0000 C.ar    1  LIG1        0.2527
      4 O           1.8745   -0.6001    0.0000 O.2     1  LIG1       -0.2677
      5 C           1.1600    0.6374    0.0000 C.ar    1  LIG1        0.0051
      6 C           0.4455    1.0499    0.0000 C.ar    1  LIG1       -0.0276
      7 C          -0.2690    0.6374    0.0000 C.ar    1  LIG1        0.1064
      8 N          -0.9834    1.0499    0.0000 N.ar    1  LIG1       -0.2504
      9 C          -1.6979    0.6374    0.0000 C.ar    1  LIG1        0.0465
     10 C          -1.6979   -0.1876    0.0000 C.ar    1  LIG1        0.0480
     11 N          -0.9834   -0.6001    0.0000 N.ar    1  LIG1       -0.2342
     12 C          -0.2690   -0.1876    0.0000 C.ar    1  LIG1        0.1616
     13 H           1.5201   -1.8056    0.0000 H       1  LIG1        0.0457
     14 H          -0.1130   -1.8198   -0.9121 H       1  LIG1        0.0457
     15 H          -0.0847   -1.7998    0.9370 H       1  LIG1        0.0457
     16 H           2.1139    1.1882    0.0000 H       1  LIG1        0.0672
     17 H           0.4455    2.1514    0.0000 H       1  LIG1        0.0642
     18 H          -2.6518    1.1882    0.0000 H       1  LIG1        0.0845
     19 H          -2.6518   -0.7384    0.0000 H       1  LIG1        0.0846
@<TRIPOS>BOND
     1     1     2    1
     2     2     3   ar
     3     3     4    2
     4     3     5   ar
     5     5     6   ar
     6     6     7   ar
     7     7     8   ar
     8     8     9   ar
     9     9    10   ar
    10    10    11   ar
    11    11    12   ar
    12     2    12   ar
    13     7    12   ar
    14     1    13    1
    15     1    14    1
    16     1    15    1
    17     5    16    1
    18     6    17    1
    19     9    18    1
    20    10    19    1
