@<TRIPOS>MOLECULE
Cn1[nH]c2ncncc2c1=O
 17 18 0 0 0
SMALL
GASTEIGER
Energy = 0

@<TRIPOS>ATOM
      1 C           1.9265    0.1463    0.0000 C.3     1  LIG1        0.0319
      2 N           1.1015    0.1463    0.0000 N.ar    1  LIG1       -0.2532
      3 N           0.6165    0.8137    0.0000 N.ar    1  LIG1       -0.2778
      4 C          -0.1681    0.5588    0.0000 C.ar    1  LIG1        0.1612
      5 N          -0.8826    0.9713    0.0000 N.ar    1  LIG1       -0.2164
      6 C          -1.5970    0.5588    0.0000 C.ar    1  LIG1        0.1183
      7 N          -1.5970   -0.2662    0.0000 N.ar    1  LIG1       -0.2428
      8 C          -0.8826   -0.6787    0.0000 C.ar    1  LIG1        0.0453
      9 C          -0.1681   -0.2662    0.0000 C.ar    1  LIG1        0.1023
     10 C           0.6165   -0.5212    0.0000 C.ar    1  LIG1        0.2776
     11 O           0.8715   -1.3058    0.0000 O.2     1  LIG1       -0.2655
     12 H           2.3070    1.2209    0.0000 H       1  LIG1        0.0473
     13 H           2.3212   -0.4122   -0.9121 H       1  LIG1        0.0473
     14 H           2.3012   -0.3839    0.9370 H       1  LIG1        0.0473
     15 H           0.9510    1.8432    0.0000 H       1  LIG1        0.1886
     16 H          -2.5509    1.1095    0.0000 H       1  LIG1        0.1047
     17 H          -0.8826   -1.7802    0.0000 H       1  LIG1        0.0839
@<TRIPOS>BOND
     1     1     2    1
     2     2     3   ar
     3     3     4   ar
     4     4     5   ar
     5     5     6   ar
     6     6     7   ar
     7     7     8   ar
     8     8     9   ar
     9     4     9   ar
    10     9    10   ar
    11     2    10   ar
    12    10    11    2
    13     1    12    1
    14     1    13    1
    15     1    14    1
    16     3    15    1
    17     6    16    1
    18     8    17    1
