@<TRIPOS>MOLECULE
O=c1ncc2ncn[nH]c2n1
 14 15 0 0 0
SMALL
GASTEIGER
Energy = 0

@<TRIPOS>ATOM
      1 O           1.9184   -0.7234    0.0000 O.2     1  LIG1       -0.2426
      2 C           1.2040   -0.3109    0.0000 C.ar    1  LIG1        0.3696
      3 N           1.2040    0.5141    0.0000 N.ar    1  LIG1       -0.1977
      4 C           0.4895    0.9266    0.0000 C.ar    1  LIG1        0.0621
      5 C          -0.2250    0.5141    0.0000 C.ar    1  LIG1        0.1274
      6 N          -0.9395    0.9266    0.0000 N.ar    1  LIG1       -0.2291
      7 C          -1.6539    0.5141    0.0000 C.ar    1  LIG1        0.1369
      8 N          -1.6539   -0.3109    0.0000 N.ar    1  LIG1       -0.1607
      9 N          -0.9395   -0.7234    0.0000 N.ar    1  LIG1       -0.2574
     10 C          -0.2250   -0.3109    0.0000 C.ar    1  LIG1        0.1796
     11 N           0.4895   -0.7234    0.0000 N.ar    1  LIG1       -0.1707
     12 H           0.4895    2.0281    0.0000 H       1  LIG1        0.0854
     13 H          -2.6078    1.0648    0.0000 H       1  LIG1        0.1065
     14 H          -0.9395   -1.8059    0.0000 H       1  LIG1        0.1906
@<TRIPOS>BOND
     1     1     2    2
     2     2     3   ar
     3     3     4   ar
     4     4     5   ar
     5     5     6   ar
     6     6     7   ar
     7     7     8   ar
     8     8     9   ar
     9     9    10   ar
    10     5    10   ar
    11    10    11   ar
    12     2    11   ar
    13     4    12    1
    14     7    13    1
    15     9    14    1
