@<TRIPOS>MOLECULE
O=c1cc[nH]c2nc[nH]c(=O)c12
 17 18 0 0 0
SMALL
GASTEIGER
Energy = 0

@<TRIPOS>ATOM
      1 O           0.6964   -1.3317    0.0000 O.2     1  LIG1       -0.2670
      2 C           0.6964   -0.5067    0.0000 C.ar    1  LIG1        0.2642
      3 N           1.4109   -0.0942    0.0000 N.ar    1  LIG1       -0.3127
      4 C           1.4109    0.7308    0.0000 C.ar    1  LIG1        0.0983
      5 N           0.6964    1.1433    0.0000 N.ar    1  LIG1       -0.2196
      6 C          -0.0180    0.7308    0.0000 C.ar    1  LIG1        0.1487
      7 C          -0.0180   -0.0942    0.0000 C.ar    1  LIG1        0.1280
      8 C          -0.7325   -0.5067    0.0000 C.ar    1  LIG1        0.1962
      9 O          -0.7325   -1.3317    0.0000 O.2     1  LIG1       -0.2869
     10 C          -1.4470   -0.0942    0.0000 C.ar    1  LIG1        0.0019
     11 C          -1.4470    0.7308    0.0000 C.ar    1  LIG1        0.0071
     12 N          -0.7325    1.1433    0.0000 N.ar    1  LIG1       -0.3455
     13 H           2.3484   -0.6355    0.0000 H       1  LIG1        0.1698
     14 H           2.3648    1.2816    0.0000 H       1  LIG1        0.1028
     15 H          -2.4009   -0.6450    0.0000 H       1  LIG1        0.0670
     16 H          -2.4009    1.2816    0.0000 H       1  LIG1        0.0808
     17 H          -0.7325    2.2258    0.0000 H       1  LIG1        0.1668
@<TRIPOS>BOND
     1     1     2    2
     2     2     3   ar
     3     3     4   ar
     4     4     5   ar
     5     5     6   ar
     6     6     7   ar
     7     2     7   ar
     8     7     8   ar
     9     8     9    2
    10     8    10   ar
    11    10    11   ar
    12    11    12   ar
    13     6    12   ar
    14     3    13    1
    15     4    14    1
    16    10    15    1
    17    11    16    1
    18    12    17    1
