@<TRIPOS>MOLECULE
Cn1ncc2[nH]cnc(=O)c12
 17 18 0 0 0
SMALL
GASTEIGER
Energy = 0

@<TRIPOS>ATOM
      1 C           1.1542   -1.1443    0.0000 C.3     1  LIG1        0.0311
      2 N           0.8992   -0.3597    0.0000 N.ar    1  LIG1       -0.2601
      3 N           1.3842    0.3078    0.0000 N.ar    1  LIG1       -0.1771
      4 C           0.8992    0.9752    0.0000 C.ar    1  LIG1        0.0735
      5 C           0.1146    0.7203    0.0000 C.ar    1  LIG1        0.0910
      6 C           0.1146   -0.1047    0.0000 C.ar    1  LIG1        0.1508
      7 C          -0.5999   -0.5172    0.0000 C.ar    1  LIG1        0.2987
      8 O          -0.5999   -1.3422    0.0000 O.2     1  LIG1       -0.2635
      9 N          -1.3143   -0.1047    0.0000 N.ar    1  LIG1       -0.1977
     10 C          -1.3143    0.7203    0.0000 C.ar    1  LIG1        0.0978
     11 N          -0.5999    1.1328    0.0000 N.ar    1  LIG1       -0.3429
     12 H           2.2938   -1.1741    0.0000 H       1  LIG1        0.0473
     13 H           0.7451   -1.6923   -0.9121 H       1  LIG1        0.0473
     14 H           0.7657   -1.6646    0.9370 H       1  LIG1        0.0473
     15 H           1.2395    2.0228    0.0000 H       1  LIG1        0.0869
     16 H          -2.2682    1.2710    0.0000 H       1  LIG1        0.1028
     17 H          -0.5999    2.2153    0.0000 H       1  LIG1        0.1668
@<TRIPOS>BOND
     1     1     2    1
     2     2     3   ar
     3     3     4   ar
     4     4     5   ar
     5     5     6   ar
     6     2     6   ar
     7     6     7   ar
     8     7     8    2
     9     7     9   ar
    10     9    10   ar
    11    10    11   ar
    12     5    11   ar
    13     1    12    1
    14     1    13    1
    15     1    14    1
    16     4    15    1
    17    10    16    1
    18    11    17    1
