@<TRIPOS>MOLECULE
Cn1c(=O)ccc2cnccc12
 20 21 0 0 0
SMALL
GASTEIGER
Energy = 0

@<TRIPOS>ATOM
      1 C           0.4420   -1.4275    0.0000 C.3     1  LIG1        0.0153
      2 N           0.4420   -0.6025    0.0000 N.ar    1  LIG1       -0.3111
      3 C           1.1565   -0.1900    0.0000 C.ar    1  LIG1        0.2515
      4 O           1.8709   -0.6025    0.0000 O.2     1  LIG1       -0.2677
      5 C           1.1565    0.6350    0.0000 C.ar    1  LIG1        0.0036
      6 C           0.4420    1.0475    0.0000 C.ar    1  LIG1       -0.0461
      7 C          -0.2725    0.6350    0.0000 C.ar    1  LIG1        0.0168
      8 C          -0.9870    1.0475    0.0000 C.ar    1  LIG1        0.0367
      9 N          -1.7014    0.6350    0.0000 N.ar    1  LIG1       -0.2625
     10 C          -1.7014   -0.1900    0.0000 C.ar    1  LIG1        0.0295
     11 C          -0.9870   -0.6025    0.0000 C.ar    1  LIG1       -0.0194
     12 C          -0.2725   -0.1900    0.0000 C.ar    1  LIG1        0.0546
     13 H           1.5166   -1.8080    0.0000 H       1  LIG1        0.0457
     14 H          -0.1165   -1.8222   -0.9121 H       1  LIG1        0.0457
     15 H          -0.0882   -1.8022    0.9370 H       1  LIG1        0.0457
     16 H           2.1104    1.1858    0.0000 H       1  LIG1        0.0672
     17 H           0.4420    2.1490    0.0000 H       1  LIG1        0.0626
     18 H          -0.9870    2.1490    0.0000 H       1  LIG1        0.0836
     19 H          -2.6553   -0.7407    0.0000 H       1  LIG1        0.0830
     20 H          -0.9870   -1.7040    0.0000 H       1  LIG1        0.0653
@<TRIPOS>BOND
     1     1     2    1
     2     2     3   ar
     3     3     4    2
     4     3     5   ar
     5     5     6   ar
     6     6     7   ar
     7     7     8   ar
     8     8     9   ar
     9     9    10   ar
    10    10    11   ar
    11    11    12   ar
    12     2    12   ar
    13     7    12   ar
    14     1    13    1
    15     1    14    1
    16     1    15    1
    17     5    16    1
    18     6    17    1
    19     8    18    1
    20    10    19    1
    21    11    20    1
