@<TRIPOS>MOLECULE
Cn1oc2ccccc2c1=O
 18 19 0 0 0
SMALL
GASTEIGER
Energy = 0

@<TRIPOS>ATOM
      1 C           1.8830    0.1448    0.0000 C.3     1  LIG1        0.0489
      2 N           1.0580    0.1448    0.0000 N.ar    1  LIG1       -0.1733
      3 O           0.5731    0.8122    0.0000 O.2     1  LIG1       -0.3742
      4 C          -0.2116    0.5573    0.0000 C.ar    1  LIG1        0.1686
      5 C          -0.9260    0.9698    0.0000 C.ar    1  LIG1       -0.0160
      6 C          -1.6405    0.5573    0.0000 C.ar    1  LIG1       -0.0582
      7 C          -1.6405   -0.2677    0.0000 C.ar    1  LIG1       -0.0608
      8 C          -0.9260   -0.6802    0.0000 C.ar    1  LIG1       -0.0457
      9 C          -0.2116   -0.2677    0.0000 C.ar    1  LIG1        0.0867
     10 C           0.5731   -0.5227    0.0000 C.ar    1  LIG1        0.2901
     11 O           0.8280   -1.3073    0.0000 O.2     1  LIG1       -0.2643
     12 H           2.2635    1.2194    0.0000 H       1  LIG1        0.0488
     13 H           2.2777   -0.4137   -0.9121 H       1  LIG1        0.0488
     14 H           2.2577   -0.3854    0.9370 H       1  LIG1        0.0488
     15 H          -0.9260    2.0713    0.0000 H       1  LIG1        0.0655
     16 H          -2.5944    1.1081    0.0000 H       1  LIG1        0.0619
     17 H          -2.5944   -0.8185    0.0000 H       1  LIG1        0.0618
     18 H          -0.9260   -1.7817    0.0000 H       1  LIG1        0.0626
@<TRIPOS>BOND
     1     1     2    1
     2     2     3   ar
     3     3     4   ar
     4     4     5   ar
     5     5     6   ar
     6     6     7   ar
     7     7     8   ar
     8     8     9   ar
     9     4     9   ar
    10     9    10   ar
    11     2    10   ar
    12    10    11    2
    13     1    12    1
    14     1    13    1
    15     1    14    1
    16     5    15    1
    17     6    16    1
    18     7    17    1
    19     8    18    1
