@<TRIPOS>MOLECULE
Cn1cc2[nH]c(=O)cnc2n1
 17 18 0 0 0
SMALL
GASTEIGER
Energy = 0

@<TRIPOS>ATOM
      1 C           2.2700   -0.0824    0.0000 C.3     1  LIG1        0.0303
      2 N           1.4450   -0.0824    0.0000 N.ar    1  LIG1       -0.2704
      3 C           0.9601    0.5851    0.0000 C.ar    1  LIG1        0.0508
      4 C           0.1754    0.3301    0.0000 C.ar    1  LIG1        0.1062
      5 N          -0.5390    0.7426    0.0000 N.ar    1  LIG1       -0.3172
      6 C          -1.2535    0.3301    0.0000 C.ar    1  LIG1        0.2675
      7 O          -1.9680    0.7426    0.0000 O.2     1  LIG1       -0.2662
      8 C          -1.2535   -0.4949    0.0000 C.ar    1  LIG1        0.0943
      9 N          -0.5390   -0.9074    0.0000 N.ar    1  LIG1       -0.2277
     10 C           0.1754   -0.4949    0.0000 C.ar    1  LIG1        0.1978
     11 N           0.9601   -0.7498    0.0000 N.ar    1  LIG1       -0.1498
     12 H           2.6505    0.9922    0.0000 H       1  LIG1        0.0473
     13 H           2.6647   -0.6409   -0.9121 H       1  LIG1        0.0473
     14 H           2.6447   -0.6126    0.9370 H       1  LIG1        0.0473
     15 H           1.3005    1.6327    0.0000 H       1  LIG1        0.0848
     16 H          -0.5390    1.8251    0.0000 H       1  LIG1        0.1691
     17 H          -2.2074   -1.0457    0.0000 H       1  LIG1        0.0886
@<TRIPOS>BOND
     1     1     2    1
     2     2     3   ar
     3     3     4   ar
     4     4     5   ar
     5     5     6   ar
     6     6     7    2
     7     6     8   ar
     8     8     9   ar
     9     9    10   ar
    10     4    10   ar
    11    10    11   ar
    12     2    11   ar
    13     1    12    1
    14     1    13    1
    15     1    14    1
    16     3    15    1
    17     5    16    1
    18     8    17    1
