@<TRIPOS>MOLECULE
c1cc2cncnc2o1
 13 14 0 0 0
SMALL
GASTEIGER
Energy = 0

@<TRIPOS>ATOM
      1 O           0.9443   -0.6374    0.0000 O.2     1  LIG1       -0.4449
      2 C           1.4293    0.0300    0.0000 C.ar    1  LIG1        0.0951
      3 C           0.9443    0.6975    0.0000 C.ar    1  LIG1       -0.0130
      4 C           0.1597    0.4425    0.0000 C.ar    1  LIG1        0.0579
      5 C          -0.5547    0.8550    0.0000 C.ar    1  LIG1        0.0416
      6 N          -1.2692    0.4425    0.0000 N.ar    1  LIG1       -0.2429
      7 C          -1.2692   -0.3825    0.0000 C.ar    1  LIG1        0.1198
      8 N          -0.5547   -0.7950    0.0000 N.ar    1  LIG1       -0.2006
      9 C           0.1597   -0.3825    0.0000 C.ar    1  LIG1        0.2299
     10 H           2.5308    0.0300    0.0000 H       1  LIG1        0.1030
     11 H           1.2846    1.7451    0.0000 H       1  LIG1        0.0656
     12 H          -0.5547    1.9565    0.0000 H       1  LIG1        0.0838
     13 H          -2.2231   -0.9333    0.0000 H       1  LIG1        0.1048
@<TRIPOS>BOND
     1     1     2   ar
     2     2     3   ar
     3     3     4   ar
     4     4     5   ar
     5     5     6   ar
     6     6     7   ar
     7     7     8   ar
     8     8     9   ar
     9     1     9   ar
    10     4     9   ar
    11     2    10    1
    12     3    11    1
    13     5    12    1
    14     7    13    1
