@<TRIPOS>MOLECULE
Cn1ccc2nccc2c1
 18 19 0 0 0
SMALL
GASTEIGER
Energy = 0

@<TRIPOS>ATOM
      1 C           1.7855   -0.7493    0.0000 C.3     1  LIG1        0.0113
      2 N           1.0710   -0.3368    0.0000 N.ar    1  LIG1       -0.3556
      3 C           1.0710    0.4882    0.0000 C.ar    1  LIG1        0.0063
      4 C           0.3565    0.9007    0.0000 C.ar    1  LIG1       -0.0196
      5 C          -0.3580    0.4882    0.0000 C.ar    1  LIG1        0.0738
      6 N          -1.1426    0.7432    0.0000 N.ar    1  LIG1       -0.2549
      7 C          -1.6275    0.0757    0.0000 C.ar    1  LIG1        0.0289
      8 C          -1.1426   -0.5917    0.0000 C.ar    1  LIG1       -0.0330
      9 C          -0.3580   -0.3368    0.0000 C.ar    1  LIG1        0.0179
     10 C           0.3565   -0.7493    0.0000 C.ar    1  LIG1        0.0134
     11 H           2.6523   -0.0089    0.0000 H       1  LIG1        0.0455
     12 H           1.8481   -1.4303   -0.9121 H       1  LIG1        0.0455
     13 H           1.8449   -1.3959    0.9370 H       1  LIG1        0.0455
     14 H           2.0249    1.0390    0.0000 H       1  LIG1        0.0809
     15 H           0.3565    2.0022    0.0000 H       1  LIG1        0.0653
     16 H          -2.7290    0.0757    0.0000 H       1  LIG1        0.0830
     17 H          -1.4830   -1.6393    0.0000 H       1  LIG1        0.0640
     18 H           0.3565   -1.8508    0.0000 H       1  LIG1        0.0815
@<TRIPOS>BOND
     1     1     2    1
     2     2     3   ar
     3     3     4   ar
     4     4     5   ar
     5     5     6   ar
     6     6     7   ar
     7     7     8   ar
     8     8     9   ar
     9     5     9   ar
    10     9    10   ar
    11     2    10   ar
    12     1    11    1
    13     1    12    1
    14     1    13    1
    15     3    14    1
    16     4    15    1
    17     7    16    1
    18     8    17    1
    19    10    18    1
