@<TRIPOS>MOLECULE
Cn1cnc2cnsc12
 14 15 0 0 0
SMALL
GASTEIGER
Energy = 0

@<TRIPOS>ATOM
      1 C           1.0593   -1.2223    0.0000 C.3     1  LIG1        0.0138
      2 N           0.8044   -0.4376    0.0000 N.ar    1  LIG1       -0.3266
      3 C           1.2893    0.2298    0.0000 C.ar    1  LIG1        0.0973
      4 N           0.8044    0.8972    0.0000 N.ar    1  LIG1       -0.2336
      5 C           0.0198    0.6423    0.0000 C.ar    1  LIG1        0.1158
      6 C           0.0198   -0.1827    0.0000 C.ar    1  LIG1        0.1266
      7 S          -0.7649   -0.4376    0.0000 S.2     1  LIG1        0.0314
      8 N          -1.2498    0.2298    0.0000 N.ar    1  LIG1       -0.2145
      9 C          -0.7649    0.8972    0.0000 C.ar    1  LIG1        0.0642
     10 H           2.1989   -1.2522    0.0000 H       1  LIG1        0.0456
     11 H           0.6501   -1.7702   -0.9121 H       1  LIG1        0.0456
     12 H           0.6708   -1.7425    0.9370 H       1  LIG1        0.0456
     13 H           2.3908    0.2298    0.0000 H       1  LIG1        0.1029
     14 H          -1.1053    1.9448    0.0000 H       1  LIG1        0.0859
@<TRIPOS>BOND
     1     1     2    1
     2     2     3   ar
     3     3     4   ar
     4     4     5   ar
     5     5     6   ar
     6     2     6   ar
     7     6     7   ar
     8     7     8   ar
     9     8     9   ar
    10     5     9   ar
    11     1    10    1
    12     1    11    1
    13     1    12    1
    14     3    13    1
    15     9    14    1
