@<TRIPOS>MOLECULE
O=c1[nH]c(=O)c2c[nH]cc2[nH]1
 16 17 0 0 0
SMALL
GASTEIGER
Energy = 0

@<TRIPOS>ATOM
      1 O           1.6994   -0.9097    0.0000 O.2     1  LIG1       -0.2467
      2 C           0.9849   -0.4972    0.0000 C.ar    1  LIG1        0.3272
      3 N           0.9849    0.3278    0.0000 N.ar    1  LIG1       -0.2745
      4 C           0.2705    0.7403    0.0000 C.ar    1  LIG1        0.2631
      5 O           0.2705    1.5653    0.0000 O.2     1  LIG1       -0.2670
      6 C          -0.4440    0.3278    0.0000 C.ar    1  LIG1        0.0800
      7 C          -1.2286    0.5827    0.0000 C.ar    1  LIG1        0.0161
      8 N          -1.7135   -0.0847    0.0000 N.ar    1  LIG1       -0.3646
      9 C          -1.2286   -0.7522    0.0000 C.ar    1  LIG1        0.0262
     10 C          -0.4440   -0.4972    0.0000 C.ar    1  LIG1        0.0730
     11 N           0.2705   -0.9097    0.0000 N.ar    1  LIG1       -0.3059
     12 H           1.9224    0.8690    0.0000 H       1  LIG1        0.1734
     13 H          -1.5690    1.6303    0.0000 H       1  LIG1        0.0815
     14 H          -2.7960   -0.0847    0.0000 H       1  LIG1        0.1648
     15 H          -1.5690   -1.7998    0.0000 H       1  LIG1        0.0828
     16 H           0.2705   -1.9922    0.0000 H       1  LIG1        0.1704
@<TRIPOS>BOND
     1     1     2    2
     2     2     3   ar
     3     3     4   ar
     4     4     5    2
     5     4     6   ar
     6     6     7   ar
     7     7     8   ar
     8     8     9   ar
     9     9    10   ar
    10     6    10   ar
    11    10    11   ar
    12     2    11   ar
    13     3    12    1
    14     7    13    1
    15     8    14    1
    16     9    15    1
    17    11    16    1
