@<TRIPOS>MOLECULE
Cn1ccc(=O)c2ncncc12
 19 20 0 0 0
SMALL
GASTEIGER
Energy = 0

@<TRIPOS>ATOM
      1 C           0.6031   -1.6874    0.0000 C.3     1  LIG1        0.0120
      2 N           0.6031   -0.8624    0.0000 N.ar    1  LIG1       -0.3471
      3 C           1.3176   -0.4499    0.0000 C.ar    1  LIG1        0.0086
      4 C           1.3176    0.3751    0.0000 C.ar    1  LIG1        0.0034
      5 C           0.6031    0.7876    0.0000 C.ar    1  LIG1        0.2076
      6 O           0.6031    1.6126    0.0000 O.2     1  LIG1       -0.2855
      7 C          -0.1114    0.3751    0.0000 C.ar    1  LIG1        0.1370
      8 N          -0.8258    0.7876    0.0000 N.ar    1  LIG1       -0.2301
      9 C          -1.5403    0.3751    0.0000 C.ar    1  LIG1        0.1168
     10 N          -1.5403   -0.4499    0.0000 N.ar    1  LIG1       -0.2416
     11 C          -0.8258   -0.8624    0.0000 C.ar    1  LIG1        0.0550
     12 C          -0.1114   -0.4499    0.0000 C.ar    1  LIG1        0.0894
     13 H           1.6777   -2.0679    0.0000 H       1  LIG1        0.0456
     14 H           0.0446   -2.0821   -0.9121 H       1  LIG1        0.0456
     15 H           0.0729   -2.0621    0.9370 H       1  LIG1        0.0456
     16 H           2.2715   -1.0007    0.0000 H       1  LIG1        0.0810
     17 H           2.2715    0.9259    0.0000 H       1  LIG1        0.0671
     18 H          -2.4942    0.9259    0.0000 H       1  LIG1        0.1047
     19 H          -0.8258   -1.9639    0.0000 H       1  LIG1        0.0852
@<TRIPOS>BOND
     1     1     2    1
     2     2     3   ar
     3     3     4   ar
     4     4     5   ar
     5     5     6    2
     6     5     7   ar
     7     7     8   ar
     8     8     9   ar
     9     9    10   ar
    10    10    11   ar
    11    11    12   ar
    12     2    12   ar
    13     7    12   ar
    14     1    13    1
    15     1    14    1
    16     1    15    1
    17     3    16    1
    18     4    17    1
    19     9    18    1
    20    11    19    1
