@<TRIPOS>MOLECULE
Cn1ccc(=O)cc1
 15 15 0 0 0
SMALL
GASTEIGER
Energy = 0

@<TRIPOS>ATOM
      1 C          -0.0000   -1.6983    0.0000 C.3     1  LIG1        0.0113
      2 N          -0.0000   -0.8733    0.0000 N.ar    1  LIG1       -0.3560
      3 C           0.7145   -0.4608    0.0000 C.ar    1  LIG1        0.0078
      4 C           0.7145    0.3642    0.0000 C.ar    1  LIG1        0.0012
      5 C           0.0000    0.7767    0.0000 C.ar    1  LIG1        0.1817
      6 O           0.0000    1.6017    0.0000 O.2     1  LIG1       -0.2878
      7 C          -0.7145    0.3642    0.0000 C.ar    1  LIG1        0.0012
      8 C          -0.7145   -0.4608    0.0000 C.ar    1  LIG1        0.0078
      9 H           1.0746   -2.0788    0.0000 H       1  LIG1        0.0455
     10 H          -0.5585   -2.0930   -0.9121 H       1  LIG1        0.0455
     11 H          -0.5302   -2.0730    0.9370 H       1  LIG1        0.0455
     12 H           1.6684   -1.0116    0.0000 H       1  LIG1        0.0810
     13 H           1.6684    0.9150    0.0000 H       1  LIG1        0.0670
     14 H          -1.6684    0.9150    0.0000 H       1  LIG1        0.0670
     15 H          -1.6684   -1.0116    0.0000 H       1  LIG1        0.0810
@<TRIPOS>BOND
     1     1     2    1
     2     2     3   ar
     3     3     4   ar
     4     4     5   ar
     5     5     6    2
     6     5     7   ar
     7     7     8   ar
     8     2     8   ar
     9     1     9    1
    10     1    10    1
    11     1    11    1
    12     3    12    1
    13     4    13    1
    14     7    14    1
    15     8    15    1
