@<TRIPOS>MOLECULE
c1cnccn1
 10 10 0 0 0
SMALL
GASTEIGER
Energy = 0

@<TRIPOS>ATOM
      1 C          -0.0000   -0.8250    0.0000 C.ar    1  LIG1        0.0456
      2 C           0.7145   -0.4125    0.0000 C.ar    1  LIG1        0.0456
      3 N           0.7145    0.4125    0.0000 N.ar    1  LIG1       -0.2603
      4 C           0.0000    0.8250    0.0000 C.ar    1  LIG1        0.0456
      5 C          -0.7145    0.4125    0.0000 C.ar    1  LIG1        0.0456
      6 N          -0.7145   -0.4125    0.0000 N.ar    1  LIG1       -0.2603
      7 H           0.0000   -1.9265    0.0000 H       1  LIG1        0.0845
      8 H           1.6684   -0.9633    0.0000 H       1  LIG1        0.0845
      9 H           0.0000    1.9265    0.0000 H       1  LIG1        0.0845
     10 H          -1.6684    0.9633    0.0000 H       1  LIG1        0.0845
@<TRIPOS>BOND
     1     1     2   ar
     2     2     3   ar
     3     3     4   ar
     4     4     5   ar
     5     5     6   ar
     6     1     6   ar
     7     1     7    1
     8     2     8    1
     9     4     9    1
    10     5    10    1
