@<TRIPOS>MOLECULE
Cn1ccn2c(=O)ccnc12
 18 19 0 0 0
SMALL
GASTEIGER
Energy = 0

@<TRIPOS>ATOM
      1 C           1.1535   -1.4999    0.0000 C.3     1  LIG1        0.0146
      2 N           0.8986   -0.7153    0.0000 N.ar    1  LIG1       -0.3194
      3 C           1.3835   -0.0479    0.0000 C.ar    1  LIG1        0.0242
      4 C           0.8986    0.6196    0.0000 C.ar    1  LIG1        0.0322
      5 N           0.1140    0.3646    0.0000 N.ar    1  LIG1       -0.2523
      6 C          -0.6005    0.7771    0.0000 C.ar    1  LIG1        0.2594
      7 O          -0.6005    1.6021    0.0000 O.2     1  LIG1       -0.2672
      8 C          -1.3150    0.3646    0.0000 C.ar    1  LIG1        0.0215
      9 C          -1.3150   -0.4604    0.0000 C.ar    1  LIG1        0.0365
     10 N          -0.6005   -0.8729    0.0000 N.ar    1  LIG1       -0.2214
     11 C           0.1140   -0.4604    0.0000 C.ar    1  LIG1        0.2176
     12 H           2.2931   -1.5298    0.0000 H       1  LIG1        0.0457
     13 H           0.7443   -2.0478   -0.9121 H       1  LIG1        0.0457
     14 H           0.7650   -2.0201    0.9370 H       1  LIG1        0.0457
     15 H           2.4850   -0.0479    0.0000 H       1  LIG1        0.0825
     16 H           1.2390    1.6672    0.0000 H       1  LIG1        0.0829
     17 H          -2.2689    0.9154    0.0000 H       1  LIG1        0.0687
     18 H          -2.2689   -1.0112    0.0000 H       1  LIG1        0.0832
@<TRIPOS>BOND
     1     1     2    1
     2     2     3   ar
     3     3     4   ar
     4     4     5   ar
     5     5     6   ar
     6     6     7    2
     7     6     8   ar
     8     8     9   ar
     9     9    10   ar
    10    10    11   ar
    11     2    11   ar
    12     5    11   ar
    13     1    12    1
    14     1    13    1
    15     1    14    1
    16     3    15    1
    17     4    16    1
    18     8    17    1
    19     9    18    1
