@<TRIPOS>MOLECULE
c1n[nH]c2ccccc12
 15 16 0 0 0
SMALL
GASTEIGER
Energy = 0

@<TRIPOS>ATOM
      1 N           0.9032   -0.6556    0.0000 N.ar    1  LIG1       -0.2770
      2 N           1.3881    0.0119    0.0000 N.ar    1  LIG1       -0.1812
      3 C           0.9032    0.6793    0.0000 C.ar    1  LIG1        0.0569
      4 C           0.1186    0.4244    0.0000 C.ar    1  LIG1        0.0195
      5 C          -0.5959    0.8369    0.0000 C.ar    1  LIG1       -0.0511
      6 C          -1.3104    0.4244    0.0000 C.ar    1  LIG1       -0.0610
      7 C          -1.3104   -0.4006    0.0000 C.ar    1  LIG1       -0.0597
      8 C          -0.5959   -0.8131    0.0000 C.ar    1  LIG1       -0.0363
      9 C           0.1186   -0.4006    0.0000 C.ar    1  LIG1        0.0657
     10 H           1.2377   -1.6851    0.0000 H       1  LIG1        0.1889
     11 H           1.2436    1.7269    0.0000 H       1  LIG1        0.0854
     12 H          -0.5959    1.9384    0.0000 H       1  LIG1        0.0625
     13 H          -2.2643    0.9752    0.0000 H       1  LIG1        0.0618
     14 H          -2.2643   -0.9514    0.0000 H       1  LIG1        0.0618
     15 H          -0.5959   -1.9146    0.0000 H       1  LIG1        0.0639
@<TRIPOS>BOND
     1     1     2   ar
     2     2     3   ar
     3     3     4   ar
     4     4     5   ar
     5     5     6   ar
     6     6     7   ar
     7     7     8   ar
     8     8     9   ar
     9     1     9   ar
    10     4     9   ar
    11     1    10    1
    12     3    11    1
    13     5    12    1
    14     6    13    1
    15     7    14    1
    16     8    15    1
