@<TRIPOS>MOLECULE
O=c1nc2occn2c(=O)[nH]1
 14 15 0 0 0
SMALL
GASTEIGER
Energy = 0

@<TRIPOS>ATOM
      1 O           1.7152   -0.8952    0.0000 O.2     1  LIG1       -0.2444
      2 C           1.0007   -0.4827    0.0000 C.ar    1  LIG1        0.3540
      3 N           1.0007    0.3423    0.0000 N.ar    1  LIG1       -0.2581
      4 C           0.2862    0.7548    0.0000 C.ar    1  LIG1        0.3385
      5 O           0.2862    1.5798    0.0000 O.2     1  LIG1       -0.2459
      6 N          -0.4282    0.3423    0.0000 N.ar    1  LIG1       -0.2195
      7 C          -1.2129    0.5972    0.0000 C.ar    1  LIG1        0.0539
      8 C          -1.6978   -0.0702    0.0000 C.ar    1  LIG1        0.1125
      9 O          -1.2129   -0.7377    0.0000 O.2     1  LIG1       -0.4307
     10 C          -0.4282   -0.4827    0.0000 C.ar    1  LIG1        0.3156
     11 N           0.2862   -0.8952    0.0000 N.ar    1  LIG1       -0.1401
     12 H           1.9382    0.8836    0.0000 H       1  LIG1        0.1750
     13 H          -1.5533    1.6448    0.0000 H       1  LIG1        0.0847
     14 H          -2.7993   -0.0702    0.0000 H       1  LIG1        0.1046
@<TRIPOS>BOND
     1     1     2    2
     2     2     3   ar
     3     3     4   ar
     4     4     5    2
     5     4     6   ar
     6     6     7   ar
     7     7     8   ar
     8     8     9   ar
     9     9    10   ar
    10     6    10   ar
    11    10    11   ar
    12     2    11   ar
    13     3    12    1
    14     7    13    1
    15     8    14    1
