@<TRIPOS>MOLECULE
Cn1c(=O)cnc2ccccc12
 20 21 0 0 0
SMALL
GASTEIGER
Energy = 0

@<TRIPOS>ATOM
      1 C           0.4139   -1.4329    0.0000 C.3     1  LIG1        0.0154
      2 N           0.4139   -0.6079    0.0000 N.ar    1  LIG1       -0.3085
      3 C           1.1283   -0.1954    0.0000 C.ar    1  LIG1        0.2697
      4 O           1.8428   -0.6079    0.0000 O.2     1  LIG1       -0.2660
      5 C           1.1283    0.6296    0.0000 C.ar    1  LIG1        0.0927
      6 N           0.4139    1.0421    0.0000 N.ar    1  LIG1       -0.2481
      7 C          -0.3006    0.6296    0.0000 C.ar    1  LIG1        0.0875
      8 C          -1.0151    1.0421    0.0000 C.ar    1  LIG1       -0.0343
      9 C          -1.7296    0.6296    0.0000 C.ar    1  LIG1       -0.0596
     10 C          -1.7296   -0.1954    0.0000 C.ar    1  LIG1       -0.0597
     11 C          -1.0151   -0.6079    0.0000 C.ar    1  LIG1       -0.0360
     12 C          -0.3006   -0.1954    0.0000 C.ar    1  LIG1        0.0700
     13 H           1.4885   -1.8134    0.0000 H       1  LIG1        0.0457
     14 H          -0.1446   -1.8276   -0.9121 H       1  LIG1        0.0457
     15 H          -0.1163   -1.8076    0.9370 H       1  LIG1        0.0457
     16 H           2.0822    1.1803    0.0000 H       1  LIG1        0.0885
     17 H          -1.0151    2.1436    0.0000 H       1  LIG1        0.0639
     18 H          -2.6835    1.1804    0.0000 H       1  LIG1        0.0618
     19 H          -2.6835   -0.7462    0.0000 H       1  LIG1        0.0618
     20 H          -1.0151   -1.7094    0.0000 H       1  LIG1        0.0639
@<TRIPOS>BOND
     1     1     2    1
     2     2     3   ar
     3     3     4    2
     4     3     5   ar
     5     5     6   ar
     6     6     7   ar
     7     7     8   ar
     8     8     9   ar
     9     9    10   ar
    10    10    11   ar
    11    11    12   ar
    12     2    12   ar
    13     7    12   ar
    14     1    13    1
    15     1    14    1
    16     1    15    1
    17     5    16    1
    18     8    17    1
    19     9    18    1
    20    10    19    1
    21    11    20    1
