@<TRIPOS>MOLECULE
c1ncc2[nH]cncc12
 14 15 0 0 0
SMALL
GASTEIGER
Energy = 0

@<TRIPOS>ATOM
      1 N           0.5467   -0.8178    0.0000 N.ar    1  LIG1       -0.3443
      2 C           1.2612   -0.4053    0.0000 C.ar    1  LIG1        0.0937
      3 N           1.2612    0.4197    0.0000 N.ar    1  LIG1       -0.2450
      4 C           0.5467    0.8322    0.0000 C.ar    1  LIG1        0.0398
      5 C          -0.1677    0.4197    0.0000 C.ar    1  LIG1        0.0359
      6 C          -0.9524    0.6747    0.0000 C.ar    1  LIG1        0.0382
      7 N          -1.4373    0.0072    0.0000 N.ar    1  LIG1       -0.2605
      8 C          -0.9524   -0.6602    0.0000 C.ar    1  LIG1        0.0516
      9 C          -0.1677   -0.4053    0.0000 C.ar    1  LIG1        0.0687
     10 H           0.5467   -1.9003    0.0000 H       1  LIG1        0.1668
     11 H           2.2151   -0.9561    0.0000 H       1  LIG1        0.1027
     12 H           0.5467    1.9337    0.0000 H       1  LIG1        0.0837
     13 H          -1.2928    1.7223    0.0000 H       1  LIG1        0.0837
     14 H          -1.2928   -1.7078    0.0000 H       1  LIG1        0.0851
@<TRIPOS>BOND
     1     1     2   ar
     2     2     3   ar
     3     3     4   ar
     4     4     5   ar
     5     5     6   ar
     6     6     7   ar
     7     7     8   ar
     8     8     9   ar
     9     1     9   ar
    10     5     9   ar
    11     1    10    1
    12     2    11    1
    13     4    12    1
    14     6    13    1
    15     8    14    1
