@<TRIPOS>MOLECULE
Cn1cnc(=O)c2[nH]ccc12
 18 19 0 0 0
SMALL
GASTEIGER
Energy = 0

@<TRIPOS>ATOM
      1 C          -0.4321   -1.6999    0.0000 C.3     1  LIG1        0.0133
      2 N          -0.4321   -0.8749    0.0000 N.ar    1  LIG1       -0.3330
      3 C          -1.1466   -0.4624    0.0000 C.ar    1  LIG1        0.1001
      4 N          -1.1466    0.3626    0.0000 N.ar    1  LIG1       -0.1976
      5 C          -0.4321    0.7751    0.0000 C.ar    1  LIG1        0.2970
      6 O          -0.4321    1.6001    0.0000 O.2     1  LIG1       -0.2635
      7 C           0.2823    0.3626    0.0000 C.ar    1  LIG1        0.1302
      8 C           0.2823   -0.4624    0.0000 C.ar    1  LIG1        0.0730
      9 C           1.0669   -0.7173    0.0000 C.ar    1  LIG1       -0.0200
     10 C           1.5519   -0.0499    0.0000 C.ar    1  LIG1        0.0043
     11 N           1.0669    0.6175    0.0000 N.ar    1  LIG1       -0.3552
     12 H          -1.5067   -2.0804    0.0000 H       1  LIG1        0.0456
     13 H           0.1264   -2.0946    0.9121 H       1  LIG1        0.0456
     14 H           0.0981   -2.0746   -0.9370 H       1  LIG1        0.0456
     15 H          -2.1005   -1.0132    0.0000 H       1  LIG1        0.1030
     16 H           1.4072   -1.7649    0.0000 H       1  LIG1        0.0653
     17 H           2.6534   -0.0499    0.0000 H       1  LIG1        0.0807
     18 H           1.4014    1.6470    0.0000 H       1  LIG1        0.1655
@<TRIPOS>BOND
     1     1     2    1
     2     2     3   ar
     3     3     4   ar
     4     4     5   ar
     5     5     6    2
     6     5     7   ar
     7     7     8   ar
     8     2     8   ar
     9     8     9   ar
    10     9    10   ar
    11    10    11   ar
    12     7    11   ar
    13     1    12    1
    14     1    13    1
    15     1    14    1
    16     3    15    1
    17     9    16    1
    18    10    17    1
    19    11    18    1
