@<TRIPOS>MOLECULE
O=c1[nH]c2c(=O)[nH]ccc2o1
 15 16 0 0 0
SMALL
GASTEIGER
Energy = 0

@<TRIPOS>ATOM
      1 O           2.0504   -0.1749    0.0000 O.2     1  LIG1       -0.2229
      2 C           1.2254   -0.1749    0.0000 C.ar    1  LIG1        0.4188
      3 N           0.7405    0.4926    0.0000 N.ar    1  LIG1       -0.2837
      4 C          -0.0441    0.2376    0.0000 C.ar    1  LIG1        0.1523
      5 C          -0.0441   -0.5874    0.0000 C.ar    1  LIG1        0.1635
      6 O           0.7405   -0.8423    0.0000 O.2     1  LIG1       -0.4074
      7 C          -0.7586   -0.9999    0.0000 C.ar    1  LIG1       -0.0009
      8 C          -1.4731   -0.5874    0.0000 C.ar    1  LIG1        0.0085
      9 N          -1.4731    0.2376    0.0000 N.ar    1  LIG1       -0.3272
     10 C          -0.7586    0.6501    0.0000 C.ar    1  LIG1        0.2760
     11 O          -0.7586    1.4751    0.0000 O.2     1  LIG1       -0.2655
     12 H           1.0750    1.5221    0.0000 H       1  LIG1        0.1723
     13 H          -0.7586   -2.1014    0.0000 H       1  LIG1        0.0669
     14 H          -2.4270   -1.1382    0.0000 H       1  LIG1        0.0809
     15 H          -2.4106    0.7789    0.0000 H       1  LIG1        0.1684
@<TRIPOS>BOND
     1     1     2    2
     2     2     3   ar
     3     3     4   ar
     4     4     5   ar
     5     5     6   ar
     6     2     6   ar
     7     5     7   ar
     8     7     8   ar
     9     8     9   ar
    10     9    10   ar
    11     4    10   ar
    12    10    11    2
    13     3    12    1
    14     7    13    1
    15     8    14    1
    16     9    15    1
