@<TRIPOS>MOLECULE
Cn1cnc2ccncc12
 17 18 0 0 0
SMALL
GASTEIGER
Energy = 0

@<TRIPOS>ATOM
      1 C           1.0762   -1.3072    0.0000 C.3     1  LIG1        0.0133
      2 N           0.8213   -0.5226    0.0000 N.ar    1  LIG1       -0.3320
      3 C           1.3062    0.1448    0.0000 C.ar    1  LIG1        0.0968
      4 N           0.8213    0.8123    0.0000 N.ar    1  LIG1       -0.2356
      5 C           0.0367    0.5573    0.0000 C.ar    1  LIG1        0.0919
      6 C          -0.6778    0.9698    0.0000 C.ar    1  LIG1       -0.0161
      7 C          -1.3923    0.5573    0.0000 C.ar    1  LIG1        0.0297
      8 N          -1.3923   -0.2677    0.0000 N.ar    1  LIG1       -0.2611
      9 C          -0.6778   -0.6802    0.0000 C.ar    1  LIG1        0.0531
     10 C           0.0367   -0.2677    0.0000 C.ar    1  LIG1        0.0867
     11 H           2.2158   -1.3371    0.0000 H       1  LIG1        0.0456
     12 H           0.6670   -1.8551   -0.9121 H       1  LIG1        0.0456
     13 H           0.6877   -1.8274    0.9370 H       1  LIG1        0.0456
     14 H           2.4077    0.1448    0.0000 H       1  LIG1        0.1029
     15 H          -0.6778    2.0713    0.0000 H       1  LIG1        0.0655
     16 H          -2.3462    1.1081    0.0000 H       1  LIG1        0.0830
     17 H          -0.6778   -1.7817    0.0000 H       1  LIG1        0.0851
@<TRIPOS>BOND
     1     1     2    1
     2     2     3   ar
     3     3     4   ar
     4     4     5   ar
     5     5     6   ar
     6     6     7   ar
     7     7     8   ar
     8     8     9   ar
     9     9    10   ar
    10     2    10   ar
    11     5    10   ar
    12     1    11    1
    13     1    12    1
    14     1    13    1
    15     3    14    1
    16     6    15    1
    17     7    16    1
    18     9    17    1
