@<TRIPOS>MOLECULE
c1nc2ncccn2n1
 13 14 0 0 0
SMALL
GASTEIGER
Energy = 0

@<TRIPOS>ATOM
      1 C           1.2938    0.4196    0.0000 C.ar    1  LIG1       -0.0252
      2 C           0.5793    0.8321    0.0000 C.ar    1  LIG1        0.0343
      3 N          -0.1351    0.4196    0.0000 N.ar    1  LIG1       -0.2042
      4 N          -0.9198    0.6745    0.0000 N.ar    1  LIG1       -0.1523
      5 C          -1.4047    0.0071    0.0000 C.ar    1  LIG1        0.1405
      6 N          -0.9198   -0.6603    0.0000 N.ar    1  LIG1       -0.1974
      7 C          -0.1351   -0.4054    0.0000 C.ar    1  LIG1        0.2527
      8 N           0.5793   -0.8179    0.0000 N.ar    1  LIG1       -0.2190
      9 C           1.2938   -0.4054    0.0000 C.ar    1  LIG1        0.0329
     10 H           2.2477    0.9704    0.0000 H       1  LIG1        0.0648
     11 H           0.5793    1.9336    0.0000 H       1  LIG1        0.0832
     12 H          -2.5062    0.0071    0.0000 H       1  LIG1        0.1066
     13 H           2.2477   -0.9562    0.0000 H       1  LIG1        0.0831
@<TRIPOS>BOND
     1     1     2   ar
     2     2     3   ar
     3     3     4   ar
     4     4     5   ar
     5     5     6   ar
     6     6     7   ar
     7     3     7   ar
     8     7     8   ar
     9     8     9   ar
    10     1     9   ar
    11     1    10    1
    12     2    11    1
    13     5    12    1
    14     9    13    1
