@<TRIPOS>MOLECULE
O=c1[nH]cnc2[nH]ncc12
 14 15 0 0 0
SMALL
GASTEIGER
Energy = 0

@<TRIPOS>ATOM
      1 O          -0.4949   -1.4664    0.0000 O.2     1  LIG1       -0.2670
      2 C          -0.4949   -0.6414    0.0000 C.ar    1  LIG1        0.2621
      3 N          -1.2094   -0.2289    0.0000 N.ar    1  LIG1       -0.3128
      4 C          -1.2094    0.5961    0.0000 C.ar    1  LIG1        0.0983
      5 N          -0.4949    1.0086    0.0000 N.ar    1  LIG1       -0.2182
      6 C           0.2196    0.5961    0.0000 C.ar    1  LIG1        0.1625
      7 C           0.2196   -0.2289    0.0000 C.ar    1  LIG1        0.1025
      8 C           1.0042   -0.4839    0.0000 C.ar    1  LIG1        0.0637
      9 N           1.4891    0.1836    0.0000 N.ar    1  LIG1       -0.1797
     10 N           1.0042    0.8510    0.0000 N.ar    1  LIG1       -0.2600
     11 H          -2.1469   -0.7702    0.0000 H       1  LIG1        0.1698
     12 H          -2.1633    1.1469    0.0000 H       1  LIG1        0.1028
     13 H           1.3446   -1.5315    0.0000 H       1  LIG1        0.0856
     14 H           1.3387    1.8805    0.0000 H       1  LIG1        0.1905
@<TRIPOS>BOND
     1     1     2    2
     2     2     3   ar
     3     3     4   ar
     4     4     5   ar
     5     5     6   ar
     6     6     7   ar
     7     2     7   ar
     8     7     8   ar
     9     8     9   ar
    10     9    10   ar
    11     6    10   ar
    12     3    11    1
    13     4    12    1
    14     8    13    1
    15    10    14    1
