@<TRIPOS>MOLECULE
Cn1cc2ccc(=O)nc2[nH]1
 18 19 0 0 0
SMALL
GASTEIGER
Energy = 0

@<TRIPOS>ATOM
      1 C           2.2624   -0.1139    0.0000 C.3     1  LIG1        0.0282
      2 N           1.4374   -0.1139    0.0000 N.ar    1  LIG1       -0.2947
      3 N           0.9525    0.5536    0.0000 N.ar    1  LIG1       -0.2809
      4 C           0.1679    0.2986    0.0000 C.ar    1  LIG1        0.1580
      5 N          -0.5466    0.7111    0.0000 N.ar    1  LIG1       -0.1899
      6 C          -1.2611    0.2986    0.0000 C.ar    1  LIG1        0.2721
      7 O          -1.9755    0.7111    0.0000 O.2     1  LIG1       -0.2658
      8 C          -1.2611   -0.5264    0.0000 C.ar    1  LIG1        0.0054
      9 C          -0.5466   -0.9389    0.0000 C.ar    1  LIG1       -0.0444
     10 C           0.1679   -0.5264    0.0000 C.ar    1  LIG1        0.0364
     11 C           0.9525   -0.7813    0.0000 C.ar    1  LIG1        0.0323
     12 H           2.6429    0.9607    0.0000 H       1  LIG1        0.0472
     13 H           2.6571   -0.6724   -0.9121 H       1  LIG1        0.0472
     14 H           2.6371   -0.6441    0.9370 H       1  LIG1        0.0472
     15 H           1.2870    1.5831    0.0000 H       1  LIG1        0.1885
     16 H          -2.2150   -1.0772    0.0000 H       1  LIG1        0.0672
     17 H          -0.5466   -2.0404    0.0000 H       1  LIG1        0.0627
     18 H           1.2929   -1.8289    0.0000 H       1  LIG1        0.0832
@<TRIPOS>BOND
     1     1     2    1
     2     2     3   ar
     3     3     4   ar
     4     4     5   ar
     5     5     6   ar
     6     6     7    2
     7     6     8   ar
     8     8     9   ar
     9     9    10   ar
    10     4    10   ar
    11    10    11   ar
    12     2    11   ar
    13     1    12    1
    14     1    13    1
    15     1    14    1
    16     3    15    1
    17     8    16    1
    18     9    17    1
    19    11    18    1
