@<TRIPOS>MOLECULE
O=c1ncnc2scnn12
 12 13 0 0 0
SMALL
GASTEIGER
Energy = 0

@<TRIPOS>ATOM
      1 O           0.6106   -1.5557    0.0000 O.2     1  LIG1       -0.2425
      2 C           0.6106   -0.7307    0.0000 C.ar    1  LIG1        0.3724
      3 N           1.3251   -0.3182    0.0000 N.ar    1  LIG1       -0.1799
      4 C           1.3251    0.5068    0.0000 C.ar    1  LIG1        0.1243
      5 N           0.6106    0.9193    0.0000 N.ar    1  LIG1       -0.2099
      6 C          -0.1039    0.5068    0.0000 C.ar    1  LIG1        0.2014
      7 S          -0.8885    0.7617    0.0000 S.2     1  LIG1       -0.0361
      8 C          -1.3734    0.0943    0.0000 C.ar    1  LIG1        0.0890
      9 N          -0.8885   -0.5731    0.0000 N.ar    1  LIG1       -0.1614
     10 N          -0.1039   -0.3182    0.0000 N.ar    1  LIG1       -0.1549
     11 H           2.2790    1.0576    0.0000 H       1  LIG1        0.1049
     12 H          -2.4749    0.0943    0.0000 H       1  LIG1        0.0926
@<TRIPOS>BOND
     1     1     2    2
     2     2     3   ar
     3     3     4   ar
     4     4     5   ar
     5     5     6   ar
     6     6     7   ar
     7     7     8   ar
     8     8     9   ar
     9     9    10   ar
    10     2    10   ar
    11     6    10   ar
    12     4    11    1
    13     8    12    1
