@<TRIPOS>MOLECULE
O=c1[nH]cnc2nc[nH]c(=O)c12
 16 17 0 0 0
SMALL
GASTEIGER
Energy = 0

@<TRIPOS>ATOM
      1 O           0.7145   -1.3305    0.0000 O.2     1  LIG1       -0.2669
      2 C           0.7145   -0.5055    0.0000 C.ar    1  LIG1        0.2659
      3 N           1.4289   -0.0930    0.0000 N.ar    1  LIG1       -0.3127
      4 C           1.4289    0.7320    0.0000 C.ar    1  LIG1        0.0984
      5 N           0.7145    1.1445    0.0000 N.ar    1  LIG1       -0.2175
      6 C           0.0000    0.7320    0.0000 C.ar    1  LIG1        0.1733
      7 C           0.0000   -0.0930    0.0000 C.ar    1  LIG1        0.1474
      8 C          -0.7145   -0.5055    0.0000 C.ar    1  LIG1        0.2659
      9 O          -0.7145   -1.3305    0.0000 O.2     1  LIG1       -0.2669
     10 N          -1.4289   -0.0930    0.0000 N.ar    1  LIG1       -0.3127
     11 C          -1.4289    0.7320    0.0000 C.ar    1  LIG1        0.0984
     12 N          -0.7145    1.1445    0.0000 N.ar    1  LIG1       -0.2175
     13 H           2.3664   -0.6342    0.0000 H       1  LIG1        0.1698
     14 H           2.3828    1.2827    0.0000 H       1  LIG1        0.1028
     15 H          -2.3664   -0.6342    0.0000 H       1  LIG1        0.1698
     16 H          -2.3828    1.2827    0.0000 H       1  LIG1        0.1028
@<TRIPOS>BOND
     1     1     2    2
     2     2     3   ar
     3     3     4   ar
     4     4     5   ar
     5     5     6   ar
     6     6     7   ar
     7     2     7   ar
     8     7     8   ar
     9     8     9    2
    10     8    10   ar
    11    10    11   ar
    12    11    12   ar
    13     6    12   ar
    14     3    13    1
    15     4    14    1
    16    10    15    1
    17    11    16    1
