@<TRIPOS>MOLECULE
O=c1cc[nH]c2cncnc12
 16 17 0 0 0
SMALL
GASTEIGER
Energy = 0

@<TRIPOS>ATOM
      1 O           0.6541   -1.4700    0.0000 O.2     1  LIG1       -0.2855
      2 C           0.6541   -0.6450    0.0000 C.ar    1  LIG1        0.2076
      3 C           1.3686   -0.2325    0.0000 C.ar    1  LIG1        0.0032
      4 C           1.3686    0.5925    0.0000 C.ar    1  LIG1        0.0059
      5 N           0.6541    1.0050    0.0000 N.ar    1  LIG1       -0.3581
      6 C          -0.0604    0.5925    0.0000 C.ar    1  LIG1        0.0871
      7 C          -0.7748    1.0050    0.0000 C.ar    1  LIG1        0.0548
      8 N          -1.4893    0.5925    0.0000 N.ar    1  LIG1       -0.2416
      9 C          -1.4893   -0.2325    0.0000 C.ar    1  LIG1        0.1168
     10 N          -0.7748   -0.6450    0.0000 N.ar    1  LIG1       -0.2301
     11 C          -0.0604   -0.2325    0.0000 C.ar    1  LIG1        0.1368
     12 H           2.3225   -0.7833    0.0000 H       1  LIG1        0.0671
     13 H           2.3225    1.1433    0.0000 H       1  LIG1        0.0808
     14 H           0.6541    2.0875    0.0000 H       1  LIG1        0.1654
     15 H          -0.7748    2.1065    0.0000 H       1  LIG1        0.0852
     16 H          -2.4432   -0.7833    0.0000 H       1  LIG1        0.1047
@<TRIPOS>BOND
     1     1     2    2
     2     2     3   ar
     3     3     4   ar
     4     4     5   ar
     5     5     6   ar
     6     6     7   ar
     7     7     8   ar
     8     8     9   ar
     9     9    10   ar
    10    10    11   ar
    11     2    11   ar
    12     6    11   ar
    13     3    12    1
    14     4    13    1
    15     5    14    1
    16     7    15    1
    17     9    16    1
