@<TRIPOS>MOLECULE
Cn1ccc2ncoc2c1=O
 17 18 0 0 0
SMALL
GASTEIGER
Energy = 0

@<TRIPOS>ATOM
      1 C          -1.7775   -0.5581    0.0000 C.3     1  LIG1        0.0148
      2 N          -1.0630   -0.1456    0.0000 N.ar    1  LIG1       -0.3151
      3 C          -1.0630    0.6794    0.0000 C.ar    1  LIG1        0.0098
      4 C          -0.3486    1.0919    0.0000 C.ar    1  LIG1       -0.0162
      5 C           0.3659    0.6794    0.0000 C.ar    1  LIG1        0.1161
      6 C           0.3659   -0.1456    0.0000 C.ar    1  LIG1        0.2191
      7 O           1.1505   -0.4005    0.0000 O.2     1  LIG1       -0.4370
      8 C           1.6355    0.2669    0.0000 C.ar    1  LIG1        0.1834
      9 N           1.1505    0.9344    0.0000 N.ar    1  LIG1       -0.2159
     10 C          -0.3486   -0.5581    0.0000 C.ar    1  LIG1        0.2957
     11 O          -0.3486   -1.3831    0.0000 O.2     1  LIG1       -0.2636
     12 H          -2.6443    0.1823    0.0000 H       1  LIG1        0.0457
     13 H          -1.8401   -1.2391    0.9121 H       1  LIG1        0.0457
     14 H          -1.8369   -1.2047   -0.9370 H       1  LIG1        0.0457
     15 H          -2.0169    1.2301    0.0000 H       1  LIG1        0.0810
     16 H          -0.3486    2.1934    0.0000 H       1  LIG1        0.0654
     17 H           2.7370    0.2669    0.0000 H       1  LIG1        0.1255
@<TRIPOS>BOND
     1     1     2    1
     2     2     3   ar
     3     3     4   ar
     4     4     5   ar
     5     5     6   ar
     6     6     7   ar
     7     7     8   ar
     8     8     9   ar
     9     5     9   ar
    10     6    10   ar
    11     2    10   ar
    12    10    11    2
    13     1    12    1
    14     1    13    1
    15     1    14    1
    16     3    15    1
    17     4    16    1
    18     8    17    1
