@<TRIPOS>MOLECULE
O=c1nccc[nH]1
 11 11 0 0 0
SMALL
GASTEIGER
Energy = 0

@<TRIPOS>ATOM
      1 O          -0.0000   -1.3453    0.0000 O.2     1  LIG1       -0.2447
      2 C          -0.0000   -0.5203    0.0000 C.ar    1  LIG1        0.3458
      3 N           0.7145   -0.1078    0.0000 N.ar    1  LIG1       -0.3130
      4 C           0.7145    0.7172    0.0000 C.ar    1  LIG1        0.0078
      5 C           0.0000    1.1297    0.0000 C.ar    1  LIG1       -0.0274
      6 C          -0.7145    0.7172    0.0000 C.ar    1  LIG1        0.0344
      7 N          -0.7145   -0.1078    0.0000 N.ar    1  LIG1       -0.2015
      8 H           1.6520   -0.6491    0.0000 H       1  LIG1        0.1699
      9 H           1.6684    1.2680    0.0000 H       1  LIG1        0.0809
     10 H           0.0000    2.2312    0.0000 H       1  LIG1        0.0647
     11 H          -1.6684    1.2680    0.0000 H       1  LIG1        0.0832
@<TRIPOS>BOND
     1     1     2    2
     2     2     3   ar
     3     3     4   ar
     4     4     5   ar
     5     5     6   ar
     6     6     7   ar
     7     2     7   ar
     8     3     8    1
     9     4     9    1
    10     5    10    1
    11     6    11    1
