@<TRIPOS>MOLECULE
Cn1ccc2nocc2c1=O
 17 18 0 0 0
SMALL
GASTEIGER
Energy = 0

@<TRIPOS>ATOM
      1 C           1.7909   -0.5765    0.0000 C.3     1  LIG1        0.0147
      2 N           1.0765   -0.1640    0.0000 N.ar    1  LIG1       -0.3176
      3 C           1.0765    0.6610    0.0000 C.ar    1  LIG1        0.0097
      4 C           0.3620    1.0735    0.0000 C.ar    1  LIG1       -0.0160
      5 C          -0.3525    0.6610    0.0000 C.ar    1  LIG1        0.1199
      6 N          -1.1371    0.9159    0.0000 N.ar    1  LIG1       -0.0781
      7 O          -1.6220    0.2485    0.0000 O.2     1  LIG1       -0.3616
      8 C          -1.1371   -0.4190    0.0000 C.ar    1  LIG1        0.1371
      9 C          -0.3525   -0.1640    0.0000 C.ar    1  LIG1        0.1053
     10 C           0.3620   -0.5765    0.0000 C.ar    1  LIG1        0.2634
     11 O           0.3620   -1.4015    0.0000 O.2     1  LIG1       -0.2669
     12 H           2.6578    0.1638    0.0000 H       1  LIG1        0.0457
     13 H           1.8534   -1.2575   -0.9121 H       1  LIG1        0.0457
     14 H           1.8503   -1.2231    0.9370 H       1  LIG1        0.0457
     15 H           2.0304    1.2118    0.0000 H       1  LIG1        0.0810
     16 H           0.3620    2.1750    0.0000 H       1  LIG1        0.0654
     17 H          -1.4775   -1.4666    0.0000 H       1  LIG1        0.1065
@<TRIPOS>BOND
     1     1     2    1
     2     2     3   ar
     3     3     4   ar
     4     4     5   ar
     5     5     6   ar
     6     6     7   ar
     7     7     8   ar
     8     8     9   ar
     9     5     9   ar
    10     9    10   ar
    11     2    10   ar
    12    10    11    2
    13     1    12    1
    14     1    13    1
    15     1    14    1
    16     3    15    1
    17     4    16    1
    18     8    17    1
