@<TRIPOS>MOLECULE
c1nc2cccnc2s1
 13 14 0 0 0
SMALL
GASTEIGER
Energy = 0

@<TRIPOS>ATOM
      1 S           0.7961   -0.5638    0.0000 S.2     1  LIG1       -0.0559
      2 C           1.2810    0.1037    0.0000 C.ar    1  LIG1        0.0674
      3 N           0.7961    0.7711    0.0000 N.ar    1  LIG1       -0.2458
      4 C           0.0115    0.5162    0.0000 C.ar    1  LIG1        0.0965
      5 C          -0.7030    0.9287    0.0000 C.ar    1  LIG1       -0.0323
      6 C          -1.4175    0.5162    0.0000 C.ar    1  LIG1       -0.0415
      7 C          -1.4175   -0.3088    0.0000 C.ar    1  LIG1        0.0290
      8 N          -0.7030   -0.7213    0.0000 N.ar    1  LIG1       -0.2463
      9 C           0.0115   -0.3088    0.0000 C.ar    1  LIG1        0.1277
     10 H           2.3825    0.1037    0.0000 H       1  LIG1        0.0908
     11 H          -0.7030    2.0302    0.0000 H       1  LIG1        0.0640
     12 H          -2.3714    1.0670    0.0000 H       1  LIG1        0.0633
     13 H          -2.3714   -0.8596    0.0000 H       1  LIG1        0.0830
@<TRIPOS>BOND
     1     1     2   ar
     2     2     3   ar
     3     3     4   ar
     4     4     5   ar
     5     5     6   ar
     6     6     7   ar
     7     7     8   ar
     8     8     9   ar
     9     1     9   ar
    10     4     9   ar
    11     2    10    1
    12     5    11    1
    13     6    12    1
    14     7    13    1
