@<TRIPOS>MOLECULE
O=c1nc2ccccn2o1
 14 15 0 0 0
SMALL
GASTEIGER
Energy = 0

@<TRIPOS>ATOM
      1 O           1.9369   -0.0163    0.0000 O.2     1  LIG1       -0.2188
      2 C           1.1119   -0.0163    0.0000 C.ar    1  LIG1        0.4612
      3 O           0.6270    0.6511    0.0000 O.2     1  LIG1       -0.3131
      4 N          -0.1576    0.3962    0.0000 N.ar    1  LIG1       -0.1600
      5 C          -0.8721    0.8087    0.0000 C.ar    1  LIG1        0.0471
      6 C          -1.5865    0.3962    0.0000 C.ar    1  LIG1       -0.0421
      7 C          -1.5865   -0.4288    0.0000 C.ar    1  LIG1       -0.0567
      8 C          -0.8721   -0.8413    0.0000 C.ar    1  LIG1       -0.0159
      9 C          -0.1576   -0.4288    0.0000 C.ar    1  LIG1        0.1761
     10 N           0.6270   -0.6837    0.0000 N.ar    1  LIG1       -0.1531
     11 H          -0.8721    1.9102    0.0000 H       1  LIG1        0.0845
     12 H          -2.5404    0.9469    0.0000 H       1  LIG1        0.0633
     13 H          -2.5404   -0.9795    0.0000 H       1  LIG1        0.0619
     14 H          -0.8721   -1.9428    0.0000 H       1  LIG1        0.0655
@<TRIPOS>BOND
     1     1     2    2
     2     2     3   ar
     3     3     4   ar
     4     4     5   ar
     5     5     6   ar
     6     6     7   ar
     7     7     8   ar
     8     8     9   ar
     9     4     9   ar
    10     9    10   ar
    11     2    10   ar
    12     5    11    1
    13     6    12    1
    14     7    13    1
    15     8    14    1
