@<TRIPOS>MOLECULE
c1nc2cccnc2o1
 13 14 0 0 0
SMALL
GASTEIGER
Energy = 0

@<TRIPOS>ATOM
      1 O           0.9063   -0.6418    0.0000 O.2     1  LIG1       -0.4244
      2 C           1.3912    0.0256    0.0000 C.ar    1  LIG1        0.1851
      3 N           0.9063    0.6931    0.0000 N.ar    1  LIG1       -0.2144
      4 C           0.1217    0.4381    0.0000 C.ar    1  LIG1        0.1289
      5 C          -0.5928    0.8506    0.0000 C.ar    1  LIG1       -0.0295
      6 C          -1.3073    0.4381    0.0000 C.ar    1  LIG1       -0.0413
      7 C          -1.3073   -0.3869    0.0000 C.ar    1  LIG1        0.0315
      8 N          -0.5928   -0.7994    0.0000 N.ar    1  LIG1       -0.2192
      9 C           0.1217   -0.3869    0.0000 C.ar    1  LIG1        0.2474
     10 H           2.4927    0.0256    0.0000 H       1  LIG1        0.1256
     11 H          -0.5928    1.9521    0.0000 H       1  LIG1        0.0641
     12 H          -2.2612    0.9889    0.0000 H       1  LIG1        0.0633
     13 H          -2.2612   -0.9377    0.0000 H       1  LIG1        0.0831
@<TRIPOS>BOND
     1     1     2   ar
     2     2     3   ar
     3     3     4   ar
     4     4     5   ar
     5     5     6   ar
     6     6     7   ar
     7     7     8   ar
     8     8     9   ar
     9     1     9   ar
    10     4     9   ar
    11     2    10    1
    12     5    11    1
    13     6    12    1
    14     7    13    1
