@<TRIPOS>MOLECULE
O=c1ncnc2[nH]ncnc12
 14 15 0 0 0
SMALL
GASTEIGER
Energy = 0

@<TRIPOS>ATOM
      1 O           0.6460   -1.4806    0.0000 O.2     1  LIG1       -0.2634
      2 C           0.6460   -0.6556    0.0000 C.ar    1  LIG1        0.3008
      3 N           1.3605   -0.2431    0.0000 N.ar    1  LIG1       -0.1957
      4 C           1.3605    0.5819    0.0000 C.ar    1  LIG1        0.1224
      5 N           0.6460    0.9944    0.0000 N.ar    1  LIG1       -0.2147
      6 C          -0.0685    0.5819    0.0000 C.ar    1  LIG1        0.1797
      7 N          -0.7830    0.9944    0.0000 N.ar    1  LIG1       -0.2574
      8 N          -1.4974    0.5819    0.0000 N.ar    1  LIG1       -0.1607
      9 C          -1.4974   -0.2431    0.0000 C.ar    1  LIG1        0.1370
     10 N          -0.7830   -0.6556    0.0000 N.ar    1  LIG1       -0.2251
     11 C          -0.0685   -0.2431    0.0000 C.ar    1  LIG1        0.1750
     12 H           2.3144    1.1327    0.0000 H       1  LIG1        0.1049
     13 H          -0.7830    2.0769    0.0000 H       1  LIG1        0.1906
     14 H          -2.4513   -0.7938    0.0000 H       1  LIG1        0.1065
@<TRIPOS>BOND
     1     1     2    2
     2     2     3   ar
     3     3     4   ar
     4     4     5   ar
     5     5     6   ar
     6     6     7   ar
     7     7     8   ar
     8     8     9   ar
     9     9    10   ar
    10    10    11   ar
    11     2    11   ar
    12     6    11   ar
    13     4    12    1
    14     7    13    1
    15     9    14    1
