@<TRIPOS>MOLECULE
Cn1c(=O)[nH]c2ccoc2c1=O
 18 19 0 0 0
SMALL
GASTEIGER
Energy = 0

@<TRIPOS>ATOM
      1 C          -1.5812   -0.6692    0.0000 C.3     1  LIG1        0.0197
      2 N          -0.8667   -0.2567    0.0000 N.ar    1  LIG1       -0.2611
      3 C          -0.8667    0.5683    0.0000 C.ar    1  LIG1        0.3297
      4 O          -1.5812    0.9808    0.0000 O.2     1  LIG1       -0.2465
      5 N          -0.1522    0.9808    0.0000 N.ar    1  LIG1       -0.3044
      6 C           0.5623    0.5683    0.0000 C.ar    1  LIG1        0.0942
      7 C           0.5623   -0.2567    0.0000 C.ar    1  LIG1        0.2151
      8 O           1.3469   -0.5116    0.0000 O.2     1  LIG1       -0.4559
      9 C           1.8318    0.1558    0.0000 C.ar    1  LIG1        0.0948
     10 C           1.3469    0.8233    0.0000 C.ar    1  LIG1        0.0005
     11 C          -0.1522   -0.6692    0.0000 C.ar    1  LIG1        0.2994
     12 O          -0.1522   -1.4942    0.0000 O.2     1  LIG1       -0.2635
     13 H          -2.4480    0.0712    0.0000 H       1  LIG1        0.0458
     14 H          -1.6438   -1.3502    0.9121 H       1  LIG1        0.0458
     15 H          -1.6406   -1.3158   -0.9370 H       1  LIG1        0.0458
     16 H          -0.1522    2.0633    0.0000 H       1  LIG1        0.1705
     17 H           2.9333    0.1558    0.0000 H       1  LIG1        0.1030
     18 H           1.6873    1.8709    0.0000 H       1  LIG1        0.0670
@<TRIPOS>BOND
     1     1     2    1
     2     2     3   ar
     3     3     4    2
     4     3     5   ar
     5     5     6   ar
     6     6     7   ar
     7     7     8   ar
     8     8     9   ar
     9     9    10   ar
    10     6    10   ar
    11     7    11   ar
    12     2    11   ar
    13    11    12    2
    14     1    13    1
    15     1    14    1
    16     1    15    1
    17     5    16    1
    18     9    17    1
    19    10    18    1
