@<TRIPOS>MOLECULE
Cn1cnc(=O)c2cnsc12
 16 17 0 0 0
SMALL
GASTEIGER
Energy = 0

@<TRIPOS>ATOM
      1 C          -0.5701   -1.6030    0.0000 C.3     1  LIG1        0.0137
      2 N          -0.5701   -0.7780    0.0000 N.ar    1  LIG1       -0.3276
      3 C          -1.2846   -0.3655    0.0000 C.ar    1  LIG1        0.1004
      4 N          -1.2846    0.4595    0.0000 N.ar    1  LIG1       -0.1988
      5 C          -0.5701    0.8720    0.0000 C.ar    1  LIG1        0.2828
      6 O          -0.5701    1.6970    0.0000 O.2     1  LIG1       -0.2651
      7 C           0.1444    0.4595    0.0000 C.ar    1  LIG1        0.0916
      8 C           0.1444   -0.3655    0.0000 C.ar    1  LIG1        0.1134
      9 S           0.9290   -0.6204    0.0000 S.2     1  LIG1        0.0300
     10 N           1.4139    0.0470    0.0000 N.ar    1  LIG1       -0.2159
     11 C           0.9290    0.7145    0.0000 C.ar    1  LIG1        0.0511
     12 H          -1.6447   -1.9835    0.0000 H       1  LIG1        0.0456
     13 H          -0.0116   -1.9977    0.9121 H       1  LIG1        0.0456
     14 H          -0.0399   -1.9777   -0.9370 H       1  LIG1        0.0456
     15 H          -2.2385   -0.9163    0.0000 H       1  LIG1        0.1030
     16 H           1.2694    1.7621    0.0000 H       1  LIG1        0.0845
@<TRIPOS>BOND
     1     1     2    1
     2     2     3   ar
     3     3     4   ar
     4     4     5   ar
     5     5     6    2
     6     5     7   ar
     7     7     8   ar
     8     2     8   ar
     9     8     9   ar
    10     9    10   ar
    11    10    11   ar
    12     7    11   ar
    13     1    12    1
    14     1    13    1
    15     1    14    1
    16     3    15    1
    17    11    16    1
