@<TRIPOS>MOLECULE
O=c1ccc(=O)[nH][nH]1
 12 12 0 0 0
SMALL
GASTEIGER
Energy = 0

@<TRIPOS>ATOM
      1 O          -0.0264   -1.6500    0.0000 O.2     1  LIG1       -0.2665
      2 C          -0.0264   -0.8250    0.0000 C.ar    1  LIG1        0.2632
      3 N           0.6881   -0.4125    0.0000 N.ar    1  LIG1       -0.2633
      4 N           0.6881    0.4125    0.0000 N.ar    1  LIG1       -0.2633
      5 C          -0.0264    0.8250    0.0000 C.ar    1  LIG1        0.2632
      6 O          -0.0264    1.6500    0.0000 O.2     1  LIG1       -0.2665
      7 C          -0.7409    0.4125    0.0000 C.ar    1  LIG1        0.0092
      8 C          -0.7409   -0.4125    0.0000 C.ar    1  LIG1        0.0092
      9 H           1.6256   -0.9538    0.0000 H       1  LIG1        0.1900
     10 H           1.6256    0.9538    0.0000 H       1  LIG1        0.1900
     11 H          -1.6948    0.9633    0.0000 H       1  LIG1        0.0674
     12 H          -1.6948   -0.9633    0.0000 H       1  LIG1        0.0674
@<TRIPOS>BOND
     1     1     2    2
     2     2     3   ar
     3     3     4   ar
     4     4     5   ar
     5     5     6    2
     6     5     7   ar
     7     7     8   ar
     8     2     8   ar
     9     3     9    1
    10     4    10    1
    11     7    11    1
    12     8    12    1
