@<TRIPOS>MOLECULE
Cn1cncc2[nH]c(=O)nc12
 17 18 0 0 0
SMALL
GASTEIGER
Energy = 0

@<TRIPOS>ATOM
      1 C           0.7588   -1.5067    0.0000 C.3     1  LIG1        0.0146
      2 N           0.7588   -0.6817    0.0000 N.ar    1  LIG1       -0.3180
      3 C           1.4733   -0.2692    0.0000 C.ar    1  LIG1        0.0972
      4 N           1.4733    0.5558    0.0000 N.ar    1  LIG1       -0.2433
      5 C           0.7588    0.9683    0.0000 C.ar    1  LIG1        0.0562
      6 C           0.0444    0.5558    0.0000 C.ar    1  LIG1        0.1046
      7 N          -0.7403    0.8107    0.0000 N.ar    1  LIG1       -0.3020
      8 C          -1.2252    0.1433    0.0000 C.ar    1  LIG1        0.3483
      9 O          -2.0502    0.1433    0.0000 O.2     1  LIG1       -0.2446
     10 N          -0.7403   -0.5242    0.0000 N.ar    1  LIG1       -0.1735
     11 C           0.0444   -0.2692    0.0000 C.ar    1  LIG1        0.1649
     12 H           1.8334   -1.8872    0.0000 H       1  LIG1        0.0457
     13 H           0.2003   -1.9014   -0.9121 H       1  LIG1        0.0457
     14 H           0.2286   -1.8814    0.9370 H       1  LIG1        0.0457
     15 H           2.4272   -0.8200    0.0000 H       1  LIG1        0.1029
     16 H           0.7588    2.0698    0.0000 H       1  LIG1        0.0852
     17 H          -1.0748    1.8402    0.0000 H       1  LIG1        0.1706
@<TRIPOS>BOND
     1     1     2    1
     2     2     3   ar
     3     3     4   ar
     4     4     5   ar
     5     5     6   ar
     6     6     7   ar
     7     7     8   ar
     8     8     9    2
     9     8    10   ar
    10    10    11   ar
    11     2    11   ar
    12     6    11   ar
    13     1    12    1
    14     1    13    1
    15     1    14    1
    16     3    15    1
    17     5    16    1
    18     7    17    1
