@<TRIPOS>MOLECULE
Cn1occc1=O
 12 12 0 0 0
SMALL
GASTEIGER
Energy = 0

@<TRIPOS>ATOM
      1 C          -0.1713   -1.2350    0.0000 C.3     1  LIG1        0.0488
      2 N           0.0836   -0.4503    0.0000 N.ar    1  LIG1       -0.1745
      3 O           0.8683   -0.1954    0.0000 O.2     1  LIG1       -0.3825
      4 C           0.8683    0.6296    0.0000 C.ar    1  LIG1        0.1255
      5 C           0.0836    0.8845    0.0000 C.ar    1  LIG1        0.0428
      6 C          -0.4013    0.2171    0.0000 C.ar    1  LIG1        0.2823
      7 O          -1.2263    0.2171    0.0000 O.2     1  LIG1       -0.2649
      8 H           0.7332   -1.9289    0.0000 H       1  LIG1        0.0488
      9 H          -0.8244   -1.4378   -0.9121 H       1  LIG1        0.0488
     10 H          -0.7914   -1.4276    0.9370 H       1  LIG1        0.0488
     11 H           1.7594    1.2771    0.0000 H       1  LIG1        0.1058
     12 H          -0.2568    1.9321    0.0000 H       1  LIG1        0.0704
@<TRIPOS>BOND
     1     1     2    1
     2     2     3   ar
     3     3     4   ar
     4     4     5   ar
     5     5     6   ar
     6     2     6   ar
     7     6     7    2
     8     1     8    1
     9     1     9    1
    10     1    10    1
    11     4    11    1
    12     5    12    1
