@<TRIPOS>MOLECULE
O=c1ccn2nc[nH]c2c1
 15 16 0 0 0
SMALL
GASTEIGER
Energy = 0

@<TRIPOS>ATOM
      1 O           1.7702   -0.7299    0.0000 O.2     1  LIG1       -0.2877
      2 C           1.0557   -0.3174    0.0000 C.ar    1  LIG1        0.1839
      3 C           1.0557    0.5076    0.0000 C.ar    1  LIG1        0.0034
      4 C           0.3412    0.9201    0.0000 C.ar    1  LIG1        0.0350
      5 N          -0.3732    0.5076    0.0000 N.ar    1  LIG1       -0.2221
      6 N          -1.1579    0.7626    0.0000 N.ar    1  LIG1       -0.1556
      7 C          -1.6428    0.0951    0.0000 C.ar    1  LIG1        0.1158
      8 N          -1.1579   -0.5723    0.0000 N.ar    1  LIG1       -0.3295
      9 C          -0.3732   -0.3174    0.0000 C.ar    1  LIG1        0.1371
     10 C           0.3412   -0.7299    0.0000 C.ar    1  LIG1        0.0275
     11 H           2.0096    1.0584    0.0000 H       1  LIG1        0.0671
     12 H           0.3412    2.0216    0.0000 H       1  LIG1        0.0832
     13 H          -2.7443    0.0951    0.0000 H       1  LIG1        0.1045
     14 H          -1.4924   -1.6018    0.0000 H       1  LIG1        0.1682
     15 H           0.3412   -1.8314    0.0000 H       1  LIG1        0.0692
@<TRIPOS>BOND
     1     1     2    2
     2     2     3   ar
     3     3     4   ar
     4     4     5   ar
     5     5     6   ar
     6     6     7   ar
     7     7     8   ar
     8     8     9   ar
     9     5     9   ar
    10     9    10   ar
    11     2    10   ar
    12     3    11    1
    13     4    12    1
    14     7    13    1
    15     8    14    1
    16    10    15    1
