@<TRIPOS>MOLECULE
Cn1ccn2c(=O)ncnc12
 17 18 0 0 0
SMALL
GASTEIGER
Energy = 0

@<TRIPOS>ATOM
      1 C           1.1718   -1.5050    0.0000 C.3     1  LIG1        0.0146
      2 N           0.9168   -0.7204    0.0000 N.ar    1  LIG1       -0.3194
      3 C           1.4017   -0.0529    0.0000 C.ar    1  LIG1        0.0242
      4 C           0.9168    0.6145    0.0000 C.ar    1  LIG1        0.0337
      5 N           0.1322    0.3596    0.0000 N.ar    1  LIG1       -0.2359
      6 C          -0.5823    0.7721    0.0000 C.ar    1  LIG1        0.3565
      7 O          -0.5823    1.5971    0.0000 O.2     1  LIG1       -0.2440
      8 N          -1.2967    0.3596    0.0000 N.ar    1  LIG1       -0.1811
      9 C          -1.2967   -0.4654    0.0000 C.ar    1  LIG1        0.1251
     10 N          -0.5823   -0.8779    0.0000 N.ar    1  LIG1       -0.2015
     11 C           0.1322   -0.4654    0.0000 C.ar    1  LIG1        0.2203
     12 H           2.3114   -1.5348    0.0000 H       1  LIG1        0.0457
     13 H           0.7627   -2.0530   -0.9121 H       1  LIG1        0.0457
     14 H           0.7833   -2.0253    0.9370 H       1  LIG1        0.0457
     15 H           2.5032   -0.0529    0.0000 H       1  LIG1        0.0825
     16 H           1.2572    1.6621    0.0000 H       1  LIG1        0.0830
     17 H          -2.2506   -1.0161    0.0000 H       1  LIG1        0.1050
@<TRIPOS>BOND
     1     1     2    1
     2     2     3   ar
     3     3     4   ar
     4     4     5   ar
     5     5     6   ar
     6     6     7    2
     7     6     8   ar
     8     8     9   ar
     9     9    10   ar
    10    10    11   ar
    11     2    11   ar
    12     5    11   ar
    13     1    12    1
    14     1    13    1
    15     1    14    1
    16     3    15    1
    17     4    16    1
    18     9    17    1
