@<TRIPOS>MOLECULE
c1cnc2cccnc2c1
 16 17 0 0 0
SMALL
GASTEIGER
Energy = 0

@<TRIPOS>ATOM
      1 C           1.4289   -0.4125    0.0000 C.ar    1  LIG1       -0.0415
      2 C           1.4289    0.4125    0.0000 C.ar    1  LIG1        0.0284
      3 N           0.7145    0.8250    0.0000 N.ar    1  LIG1       -0.2534
      4 C           0.0000    0.4125    0.0000 C.ar    1  LIG1        0.0891
      5 C          -0.7145    0.8250    0.0000 C.ar    1  LIG1       -0.0328
      6 C          -1.4289    0.4125    0.0000 C.ar    1  LIG1       -0.0415
      7 C          -1.4289   -0.4125    0.0000 C.ar    1  LIG1        0.0284
      8 N          -0.7145   -0.8250    0.0000 N.ar    1  LIG1       -0.2534
      9 C           0.0000   -0.4125    0.0000 C.ar    1  LIG1        0.0891
     10 C           0.7145   -0.8250    0.0000 C.ar    1  LIG1       -0.0328
     11 H           2.3828   -0.9632    0.0000 H       1  LIG1        0.0633
     12 H           2.3828    0.9632    0.0000 H       1  LIG1        0.0830
     13 H          -0.7145    1.9265    0.0000 H       1  LIG1        0.0640
     14 H          -2.3828    0.9632    0.0000 H       1  LIG1        0.0633
     15 H          -2.3828   -0.9632    0.0000 H       1  LIG1        0.0830
     16 H           0.7145   -1.9265    0.0000 H       1  LIG1        0.0640
@<TRIPOS>BOND
     1     1     2   ar
     2     2     3   ar
     3     3     4   ar
     4     4     5   ar
     5     5     6   ar
     6     6     7   ar
     7     7     8   ar
     8     8     9   ar
     9     4     9   ar
    10     9    10   ar
    11     1    10   ar
    12     1    11    1
    13     2    12    1
    14     5    13    1
    15     6    14    1
    16     7    15    1
    17    10    16    1
