@<TRIPOS>MOLECULE
Cn1ccc2c(=O)nc[nH]c12
 18 19 0 0 0
SMALL
GASTEIGER
Energy = 0

@<TRIPOS>ATOM
      1 C           1.1736   -1.4999    0.0000 C.3     1  LIG1        0.0132
      2 N           0.9187   -0.7153    0.0000 N.ar    1  LIG1       -0.3362
      3 C           1.4036   -0.0479    0.0000 C.ar    1  LIG1        0.0069
      4 C           0.9187    0.6196    0.0000 C.ar    1  LIG1       -0.0297
      5 C           0.1341    0.3646    0.0000 C.ar    1  LIG1        0.0831
      6 C           0.1341   -0.4604    0.0000 C.ar    1  LIG1        0.1246
      7 N          -0.5804   -0.8729    0.0000 N.ar    1  LIG1       -0.3316
      8 C          -1.2949   -0.4604    0.0000 C.ar    1  LIG1        0.0987
      9 N          -1.2949    0.3646    0.0000 N.ar    1  LIG1       -0.1990
     10 C          -0.5804    0.7771    0.0000 C.ar    1  LIG1        0.2822
     11 O          -0.5804    1.6021    0.0000 O.2     1  LIG1       -0.2651
     12 H           2.3132   -1.5298    0.0000 H       1  LIG1        0.0456
     13 H           0.7644   -2.0478   -0.9121 H       1  LIG1        0.0456
     14 H           0.7851   -2.0201    0.9370 H       1  LIG1        0.0456
     15 H           2.5051   -0.0479    0.0000 H       1  LIG1        0.0809
     16 H           1.2591    1.6672    0.0000 H       1  LIG1        0.0641
     17 H          -0.5804   -1.9554    0.0000 H       1  LIG1        0.1681
     18 H          -2.2488   -1.0112    0.0000 H       1  LIG1        0.1028
@<TRIPOS>BOND
     1     1     2    1
     2     2     3   ar
     3     3     4   ar
     4     4     5   ar
     5     5     6   ar
     6     2     6   ar
     7     6     7   ar
     8     7     8   ar
     9     8     9   ar
    10     9    10   ar
    11     5    10   ar
    12    10    11    2
    13     1    12    1
    14     1    13    1
    15     1    14    1
    16     3    15    1
    17     4    16    1
    18     7    17    1
    19     8    18    1
