@<TRIPOS>MOLECULE
O=c1[nH]ncc2c[nH]cc12
 15 16 0 0 0
SMALL
GASTEIGER
Energy = 0

@<TRIPOS>ATOM
      1 O           0.4685   -1.4471    0.0000 O.2     1  LIG1       -0.2657
      2 C           0.4685   -0.6221    0.0000 C.ar    1  LIG1        0.2739
      3 N           1.1830   -0.2096    0.0000 N.ar    1  LIG1       -0.2427
      4 N           1.1830    0.6154    0.0000 N.ar    1  LIG1       -0.1787
      5 C           0.4685    1.0279    0.0000 C.ar    1  LIG1        0.0571
      6 C          -0.2459    0.6154    0.0000 C.ar    1  LIG1        0.0244
      7 C          -1.0306    0.8704    0.0000 C.ar    1  LIG1        0.0111
      8 N          -1.5155    0.2029    0.0000 N.ar    1  LIG1       -0.3657
      9 C          -1.0306   -0.4645    0.0000 C.ar    1  LIG1        0.0147
     10 C          -0.2459   -0.2096    0.0000 C.ar    1  LIG1        0.0665
     11 H           2.1205   -0.7509    0.0000 H       1  LIG1        0.1921
     12 H           0.4685    2.1294    0.0000 H       1  LIG1        0.0854
     13 H          -1.3710    1.9180    0.0000 H       1  LIG1        0.0813
     14 H          -2.5980    0.2029    0.0000 H       1  LIG1        0.1648
     15 H          -1.3710   -1.5121    0.0000 H       1  LIG1        0.0815
@<TRIPOS>BOND
     1     1     2    2
     2     2     3   ar
     3     3     4   ar
     4     4     5   ar
     5     5     6   ar
     6     6     7   ar
     7     7     8   ar
     8     8     9   ar
     9     9    10   ar
    10     2    10   ar
    11     6    10   ar
    12     3    11    1
    13     5    12    1
    14     7    13    1
    15     8    14    1
    16     9    15    1
