@<TRIPOS>MOLECULE
O=c1[nH]cnc2c(=O)[nH]cnc12
 16 17 0 0 0
SMALL
GASTEIGER
Energy = 0

@<TRIPOS>ATOM
      1 O           0.7145   -1.6500    0.0000 O.2     1  LIG1       -0.2655
      2 C           0.7145   -0.8250    0.0000 C.ar    1  LIG1        0.2776
      3 N           1.4289   -0.4125    0.0000 N.ar    1  LIG1       -0.3117
      4 C           1.4289    0.4125    0.0000 C.ar    1  LIG1        0.0969
      5 N           0.7145    0.8250    0.0000 N.ar    1  LIG1       -0.2302
      6 C           0.0000    0.4125    0.0000 C.ar    1  LIG1        0.1602
      7 C           0.0000   -0.4125    0.0000 C.ar    1  LIG1        0.1602
      8 N          -0.7145   -0.8250    0.0000 N.ar    1  LIG1       -0.2302
      9 C          -1.4289   -0.4125    0.0000 C.ar    1  LIG1        0.0969
     10 N          -1.4289    0.4125    0.0000 N.ar    1  LIG1       -0.3117
     11 C          -0.7145    0.8250    0.0000 C.ar    1  LIG1        0.2776
     12 O          -0.7145    1.6500    0.0000 O.2     1  LIG1       -0.2655
     13 H           2.3664   -0.9537    0.0000 H       1  LIG1        0.1698
     14 H           2.3828    0.9632    0.0000 H       1  LIG1        0.1028
     15 H          -2.3828   -0.9632    0.0000 H       1  LIG1        0.1028
     16 H          -2.3664    0.9537    0.0000 H       1  LIG1        0.1698
@<TRIPOS>BOND
     1     1     2    2
     2     2     3   ar
     3     3     4   ar
     4     4     5   ar
     5     5     6   ar
     6     6     7   ar
     7     2     7   ar
     8     7     8   ar
     9     8     9   ar
    10     9    10   ar
    11    10    11   ar
    12     6    11   ar
    13    11    12    2
    14     3    13    1
    15     4    14    1
    16     9    15    1
    17    10    16    1
