@<TRIPOS>MOLECULE
O=c1[nH]ccc2cccnc12
 17 18 0 0 0
SMALL
GASTEIGER
Energy = 0

@<TRIPOS>ATOM
      1 O           0.6227   -1.4439    0.0000 O.2     1  LIG1       -0.2656
      2 C           0.6227   -0.6189    0.0000 C.ar    1  LIG1        0.2748
      3 N           1.3372   -0.2064    0.0000 N.ar    1  LIG1       -0.3273
      4 C           1.3372    0.6186    0.0000 C.ar    1  LIG1        0.0056
      5 C           0.6227    1.0311    0.0000 C.ar    1  LIG1       -0.0363
      6 C          -0.0918    0.6186    0.0000 C.ar    1  LIG1        0.0071
      7 C          -0.8062    1.0311    0.0000 C.ar    1  LIG1       -0.0509
      8 C          -1.5207    0.6186    0.0000 C.ar    1  LIG1       -0.0430
      9 C          -1.5207   -0.2064    0.0000 C.ar    1  LIG1        0.0285
     10 N          -0.8062   -0.6189    0.0000 N.ar    1  LIG1       -0.2495
     11 C          -0.0918   -0.2064    0.0000 C.ar    1  LIG1        0.1350
     12 H           2.2747   -0.7477    0.0000 H       1  LIG1        0.1684
     13 H           2.2911    1.1694    0.0000 H       1  LIG1        0.0808
     14 H           0.6227    2.1326    0.0000 H       1  LIG1        0.0639
     15 H          -0.8062    2.1326    0.0000 H       1  LIG1        0.0625
     16 H          -2.4746    1.1694    0.0000 H       1  LIG1        0.0633
     17 H          -2.4746   -0.7572    0.0000 H       1  LIG1        0.0830
@<TRIPOS>BOND
     1     1     2    2
     2     2     3   ar
     3     3     4   ar
     4     4     5   ar
     5     5     6   ar
     6     6     7   ar
     7     7     8   ar
     8     8     9   ar
     9     9    10   ar
    10    10    11   ar
    11     2    11   ar
    12     6    11   ar
    13     3    12    1
    14     4    13    1
    15     5    14    1
    16     7    15    1
    17     8    16    1
    18     9    17    1
