@<TRIPOS>MOLECULE
Cn1c(=O)ncc2cncnc12
 18 19 0 0 0
SMALL
GASTEIGER
Energy = 0

@<TRIPOS>ATOM
      1 C           0.4398   -1.4279    0.0000 C.3     1  LIG1        0.0181
      2 N           0.4398   -0.6029    0.0000 N.ar    1  LIG1       -0.2795
      3 C           1.1543   -0.1904    0.0000 C.ar    1  LIG1        0.3497
      4 O           1.8688   -0.6029    0.0000 O.2     1  LIG1       -0.2445
      5 N           1.1543    0.6346    0.0000 N.ar    1  LIG1       -0.2006
      6 C           0.4398    1.0471    0.0000 C.ar    1  LIG1        0.0451
      7 C          -0.2747    0.6346    0.0000 C.ar    1  LIG1        0.0539
      8 C          -0.9891    1.0471    0.0000 C.ar    1  LIG1        0.0414
      9 N          -1.7036    0.6346    0.0000 N.ar    1  LIG1       -0.2429
     10 C          -1.7036   -0.1904    0.0000 C.ar    1  LIG1        0.1182
     11 N          -0.9891   -0.6029    0.0000 N.ar    1  LIG1       -0.2176
     12 C          -0.2747   -0.1904    0.0000 C.ar    1  LIG1        0.1489
     13 H           1.5144   -1.8084    0.0000 H       1  LIG1        0.0458
     14 H          -0.1187   -1.8226   -0.9121 H       1  LIG1        0.0458
     15 H          -0.0904   -1.8026    0.9370 H       1  LIG1        0.0458
     16 H           0.4398    2.1486    0.0000 H       1  LIG1        0.0839
     17 H          -0.9891    2.1486    0.0000 H       1  LIG1        0.0838
     18 H          -2.6575   -0.7412    0.0000 H       1  LIG1        0.1047
@<TRIPOS>BOND
     1     1     2    1
     2     2     3   ar
     3     3     4    2
     4     3     5   ar
     5     5     6   ar
     6     6     7   ar
     7     7     8   ar
     8     8     9   ar
     9     9    10   ar
    10    10    11   ar
    11    11    12   ar
    12     2    12   ar
    13     7    12   ar
    14     1    13    1
    15     1    14    1
    16     1    15    1
    17     6    16    1
    18     8    17    1
    19    10    18    1
