@<TRIPOS>MOLECULE
O=c1ccn2cnccc2c1
 17 18 0 0 0
SMALL
GASTEIGER
Energy = 0

@<TRIPOS>ATOM
      1 O           1.9190   -0.7425    0.0000 O.2     1  LIG1       -0.2878
      2 C           1.2045   -0.3300    0.0000 C.ar    1  LIG1        0.1823
      3 C           1.2045    0.4950    0.0000 C.ar    1  LIG1        0.0017
      4 C           0.4900    0.9075    0.0000 C.ar    1  LIG1        0.0148
      5 N          -0.2244    0.4950    0.0000 N.ar    1  LIG1       -0.3070
      6 C          -0.9389    0.9075    0.0000 C.ar    1  LIG1        0.1003
      7 N          -1.6534    0.4950    0.0000 N.ar    1  LIG1       -0.2451
      8 C          -1.6534   -0.3300    0.0000 C.ar    1  LIG1        0.0312
      9 C          -0.9389   -0.7425    0.0000 C.ar    1  LIG1       -0.0195
     10 C          -0.2244   -0.3300    0.0000 C.ar    1  LIG1        0.0525
     11 C           0.4900   -0.7425    0.0000 C.ar    1  LIG1        0.0090
     12 H           2.1584    1.0458    0.0000 H       1  LIG1        0.0670
     13 H           0.4900    2.0090    0.0000 H       1  LIG1        0.0814
     14 H          -0.9389    2.0090    0.0000 H       1  LIG1        0.1032
     15 H          -2.6073   -0.8808    0.0000 H       1  LIG1        0.0831
     16 H          -0.9389   -1.8440    0.0000 H       1  LIG1        0.0653
     17 H           0.4900   -1.8440    0.0000 H       1  LIG1        0.0676
@<TRIPOS>BOND
     1     1     2    2
     2     2     3   ar
     3     3     4   ar
     4     4     5   ar
     5     5     6   ar
     6     6     7   ar
     7     7     8   ar
     8     8     9   ar
     9     9    10   ar
    10     5    10   ar
    11    10    11   ar
    12     2    11   ar
    13     3    12    1
    14     4    13    1
    15     6    14    1
    16     8    15    1
    17     9    16    1
    18    11    17    1
