@<TRIPOS>MOLECULE
Cn1nc2ccncc2cc1=O
 19 20 0 0 0
SMALL
GASTEIGER
Energy = 0

@<TRIPOS>ATOM
      1 C           1.7446    0.8357    0.0000 C.3     1  LIG1        0.0340
      2 N           1.0301    0.4232    0.0000 N.ar    1  LIG1       -0.2320
      3 N           0.3156    0.8357    0.0000 N.ar    1  LIG1       -0.1684
      4 C          -0.3988    0.4232    0.0000 C.ar    1  LIG1        0.0944
      5 C          -1.1133    0.8357    0.0000 C.ar    1  LIG1       -0.0159
      6 C          -1.8278    0.4232    0.0000 C.ar    1  LIG1        0.0297
      7 N          -1.8278   -0.4018    0.0000 N.ar    1  LIG1       -0.2625
      8 C          -1.1133   -0.8143    0.0000 C.ar    1  LIG1        0.0369
      9 C          -0.3988   -0.4018    0.0000 C.ar    1  LIG1        0.0253
     10 C           0.3156   -0.8143    0.0000 C.ar    1  LIG1        0.0150
     11 C           1.0301   -0.4018    0.0000 C.ar    1  LIG1        0.2676
     12 O           1.7446   -0.8143    0.0000 O.2     1  LIG1       -0.2662
     13 H           1.5369    1.9566    0.0000 H       1  LIG1        0.0474
     14 H           2.3656    0.5494   -0.9121 H       1  LIG1        0.0474
     15 H           2.3343    0.5639    0.9370 H       1  LIG1        0.0474
     16 H          -1.1133    1.9372    0.0000 H       1  LIG1        0.0655
     17 H          -2.7817    0.9740    0.0000 H       1  LIG1        0.0830
     18 H          -1.1133   -1.9158    0.0000 H       1  LIG1        0.0836
     19 H           0.3156   -1.9158    0.0000 H       1  LIG1        0.0679
@<TRIPOS>BOND
     1     1     2    1
     2     2     3   ar
     3     3     4   ar
     4     4     5   ar
     5     5     6   ar
     6     6     7   ar
     7     7     8   ar
     8     8     9   ar
     9     4     9   ar
    10     9    10   ar
    11    10    11   ar
    12     2    11   ar
    13    11    12    2
    14     1    13    1
    15     1    14    1
    16     1    15    1
    17     5    16    1
    18     6    17    1
    19     8    18    1
    20    10    19    1
