@<TRIPOS>MOLECULE
Cn1ncnc2c(=O)ncnc12
 17 18 0 0 0
SMALL
GASTEIGER
Energy = 0

@<TRIPOS>ATOM
      1 C           0.7235   -1.6812    0.0000 C.3     1  LIG1        0.0325
      2 N           0.7235   -0.8562    0.0000 N.ar    1  LIG1       -0.2468
      3 N           1.4379   -0.4437    0.0000 N.ar    1  LIG1       -0.1582
      4 C           1.4379    0.3813    0.0000 C.ar    1  LIG1        0.1372
      5 N           0.7235    0.7938    0.0000 N.ar    1  LIG1       -0.2251
      6 C           0.0090    0.3813    0.0000 C.ar    1  LIG1        0.1752
      7 C          -0.7055    0.7938    0.0000 C.ar    1  LIG1        0.3008
      8 O          -0.7055    1.6188    0.0000 O.2     1  LIG1       -0.2634
      9 N          -1.4199    0.3813    0.0000 N.ar    1  LIG1       -0.1957
     10 C          -1.4199   -0.4437    0.0000 C.ar    1  LIG1        0.1224
     11 N          -0.7055   -0.8562    0.0000 N.ar    1  LIG1       -0.2145
     12 C           0.0090   -0.4437    0.0000 C.ar    1  LIG1        0.1821
     13 H           1.7981   -2.0617    0.0000 H       1  LIG1        0.0473
     14 H           0.1650   -2.0759   -0.9121 H       1  LIG1        0.0473
     15 H           0.1933   -2.0559    0.9370 H       1  LIG1        0.0473
     16 H           2.3918    0.9320    0.0000 H       1  LIG1        0.1065
     17 H          -2.3738   -0.9944    0.0000 H       1  LIG1        0.1049
@<TRIPOS>BOND
     1     1     2    1
     2     2     3   ar
     3     3     4   ar
     4     4     5   ar
     5     5     6   ar
     6     6     7   ar
     7     7     8    2
     8     7     9   ar
     9     9    10   ar
    10    10    11   ar
    11    11    12   ar
    12     2    12   ar
    13     6    12   ar
    14     1    13    1
    15     1    14    1
    16     1    15    1
    17     4    16    1
    18    10    17    1
