@<TRIPOS>MOLECULE
Cn1cnc2conc2c1=O
 16 17 0 0 0
SMALL
GASTEIGER
Energy = 0

@<TRIPOS>ATOM
      1 C           1.7860   -0.5730    0.0000 C.3     1  LIG1        0.0161
      2 N           1.0715   -0.1605    0.0000 N.ar    1  LIG1       -0.3005
      3 C           1.0715    0.6645    0.0000 C.ar    1  LIG1        0.0992
      4 N           0.3570    1.0770    0.0000 N.ar    1  LIG1       -0.2321
      5 C          -0.3574    0.6645    0.0000 C.ar    1  LIG1        0.1366
      6 C          -1.1421    0.9195    0.0000 C.ar    1  LIG1        0.1503
      7 O          -1.6270    0.2520    0.0000 O.2     1  LIG1       -0.3600
      8 N          -1.1421   -0.4154    0.0000 N.ar    1  LIG1       -0.0712
      9 C          -0.3574   -0.1605    0.0000 C.ar    1  LIG1        0.1956
     10 C           0.3570   -0.5730    0.0000 C.ar    1  LIG1        0.2831
     11 O           0.3570   -1.3980    0.0000 O.2     1  LIG1       -0.2652
     12 H           2.6528    0.1674    0.0000 H       1  LIG1        0.0457
     13 H           1.8486   -1.2540   -0.9121 H       1  LIG1        0.0457
     14 H           1.8454   -1.2196    0.9370 H       1  LIG1        0.0457
     15 H           2.0254    1.2153    0.0000 H       1  LIG1        0.1030
     16 H          -1.4825    1.9671    0.0000 H       1  LIG1        0.1080
@<TRIPOS>BOND
     1     1     2    1
     2     2     3   ar
     3     3     4   ar
     4     4     5   ar
     5     5     6   ar
     6     6     7   ar
     7     7     8   ar
     8     8     9   ar
     9     5     9   ar
    10     9    10   ar
    11     2    10   ar
    12    10    11    2
    13     1    12    1
    14     1    13    1
    15     1    14    1
    16     3    15    1
    17     6    16    1
