@<TRIPOS>MOLECULE
c1cc2sncn2c1
 12 13 0 0 0
SMALL
GASTEIGER
Energy = 0

@<TRIPOS>ATOM
      1 S           0.6325   -0.5629    0.0000 S.2     1  LIG1        0.0311
      2 N           1.1175    0.1046    0.0000 N.ar    1  LIG1       -0.1986
      3 C           0.6325    0.7720    0.0000 C.ar    1  LIG1        0.1094
      4 N          -0.1521    0.5171    0.0000 N.ar    1  LIG1       -0.2997
      5 C          -0.9367    0.7720    0.0000 C.ar    1  LIG1        0.0118
      6 C          -1.4216    0.1046    0.0000 C.ar    1  LIG1       -0.0426
      7 C          -0.9367   -0.5629    0.0000 C.ar    1  LIG1       -0.0282
      8 C          -0.1521   -0.3079    0.0000 C.ar    1  LIG1        0.1038
      9 H           0.9728    1.8196    0.0000 H       1  LIG1        0.1039
     10 H          -1.2771    1.8196    0.0000 H       1  LIG1        0.0813
     11 H          -2.5231    0.1046    0.0000 H       1  LIG1        0.0633
     12 H          -1.2771   -1.6105    0.0000 H       1  LIG1        0.0644
@<TRIPOS>BOND
     1     1     2   ar
     2     2     3   ar
     3     3     4   ar
     4     4     5   ar
     5     5     6   ar
     6     6     7   ar
     7     7     8   ar
     8     1     8   ar
     9     4     8   ar
    10     3     9    1
    11     5    10    1
    12     6    11    1
    13     7    12    1
