@<TRIPOS>MOLECULE
O=c1cc2[nH]ccc2n[nH]1
 15 16 0 0 0
SMALL
GASTEIGER
Energy = 0

@<TRIPOS>ATOM
      1 O           1.7252   -0.7323    0.0000 O.2     1  LIG1       -0.2664
      2 C           1.0108   -0.3198    0.0000 C.ar    1  LIG1        0.2667
      3 N           1.0108    0.5052    0.0000 N.ar    1  LIG1       -0.2426
      4 N           0.2963    0.9177    0.0000 N.ar    1  LIG1       -0.1694
      5 C          -0.4182    0.5052    0.0000 C.ar    1  LIG1        0.1088
      6 C          -1.2028    0.7602    0.0000 C.ar    1  LIG1       -0.0166
      7 C          -1.6877    0.0927    0.0000 C.ar    1  LIG1        0.0043
      8 N          -1.2028   -0.5747    0.0000 N.ar    1  LIG1       -0.3592
      9 C          -0.4182   -0.3198    0.0000 C.ar    1  LIG1        0.0719
     10 C           0.2963   -0.7323    0.0000 C.ar    1  LIG1        0.0296
     11 H           1.9483    1.0465    0.0000 H       1  LIG1        0.1921
     12 H          -1.5432    1.8078    0.0000 H       1  LIG1        0.0654
     13 H          -2.7892    0.0927    0.0000 H       1  LIG1        0.0807
     14 H          -1.5373   -1.6042    0.0000 H       1  LIG1        0.1654
     15 H           0.2963   -1.8338    0.0000 H       1  LIG1        0.0693
@<TRIPOS>BOND
     1     1     2    2
     2     2     3   ar
     3     3     4   ar
     4     4     5   ar
     5     5     6   ar
     6     6     7   ar
     7     7     8   ar
     8     8     9   ar
     9     5     9   ar
    10     9    10   ar
    11     2    10   ar
    12     3    11    1
    13     6    12    1
    14     7    13    1
    15     8    14    1
    16    10    15    1
