@<TRIPOS>MOLECULE
c1ccc2onnc2c1
 13 14 0 0 0
SMALL
GASTEIGER
Energy = 0

@<TRIPOS>ATOM
      1 O           0.8722   -0.6560    0.0000 O.2     1  LIG1       -0.3358
      2 N           1.3571    0.0115    0.0000 N.ar    1  LIG1        0.0348
      3 N           0.8722    0.6789    0.0000 N.ar    1  LIG1       -0.1109
      4 C           0.0875    0.4240    0.0000 C.ar    1  LIG1        0.1339
      5 C          -0.6269    0.8365    0.0000 C.ar    1  LIG1       -0.0307
      6 C          -1.3414    0.4240    0.0000 C.ar    1  LIG1       -0.0595
      7 C          -1.3414   -0.4010    0.0000 C.ar    1  LIG1       -0.0581
      8 C          -0.6269   -0.8135    0.0000 C.ar    1  LIG1       -0.0145
      9 C           0.0875   -0.4010    0.0000 C.ar    1  LIG1        0.1874
     10 H          -0.6269    1.9380    0.0000 H       1  LIG1        0.0640
     11 H          -2.2953    0.9748    0.0000 H       1  LIG1        0.0618
     12 H          -2.2953   -0.9518    0.0000 H       1  LIG1        0.0619
     13 H          -0.6269   -1.9150    0.0000 H       1  LIG1        0.0656
@<TRIPOS>BOND
     1     1     2   ar
     2     2     3   ar
     3     3     4   ar
     4     4     5   ar
     5     5     6   ar
     6     6     7   ar
     7     7     8   ar
     8     8     9   ar
     9     1     9   ar
    10     4     9   ar
    11     5    10    1
    12     6    11    1
    13     7    12    1
    14     8    13    1
