@<TRIPOS>MOLECULE
c1cn2cncc2o1
 12 13 0 0 0
SMALL
GASTEIGER
Energy = 0

@<TRIPOS>ATOM
      1 O           0.7789   -0.6498    0.0000 O.2     1  LIG1       -0.4439
      2 C           1.2638    0.0177    0.0000 C.ar    1  LIG1        0.1109
      3 C           0.7789    0.6851    0.0000 C.ar    1  LIG1        0.0489
      4 N          -0.0057    0.4302    0.0000 N.ar    1  LIG1       -0.2736
      5 C          -0.7903    0.6851    0.0000 C.ar    1  LIG1        0.1028
      6 N          -1.2753    0.0177    0.0000 N.ar    1  LIG1       -0.2398
      7 C          -0.7903   -0.6498    0.0000 C.ar    1  LIG1        0.0897
      8 C          -0.0057   -0.3948    0.0000 C.ar    1  LIG1        0.2242
      9 H           2.3653    0.0177    0.0000 H       1  LIG1        0.1045
     10 H           1.1193    1.7327    0.0000 H       1  LIG1        0.0845
     11 H          -1.1306    1.7327    0.0000 H       1  LIG1        0.1033
     12 H          -1.1306   -1.6974    0.0000 H       1  LIG1        0.0884
@<TRIPOS>BOND
     1     1     2   ar
     2     2     3   ar
     3     3     4   ar
     4     4     5   ar
     5     5     6   ar
     6     6     7   ar
     7     7     8   ar
     8     1     8   ar
     9     4     8   ar
    10     2     9    1
    11     3    10    1
    12     5    11    1
    13     7    12    1
