@<TRIPOS>MOLECULE
Cn1ccc2ncsc2c1=O
 17 18 0 0 0
SMALL
GASTEIGER
Energy = 0

@<TRIPOS>ATOM
      1 C          -1.8929   -0.5179    0.0000 C.3     1  LIG1        0.0147
      2 N          -1.1785   -0.1054    0.0000 N.ar    1  LIG1       -0.3172
      3 C          -1.1785    0.7196    0.0000 C.ar    1  LIG1        0.0097
      4 C          -0.4640    1.1321    0.0000 C.ar    1  LIG1       -0.0188
      5 C           0.2505    0.7196    0.0000 C.ar    1  LIG1        0.0848
      6 C           0.2505   -0.1054    0.0000 C.ar    1  LIG1        0.1034
      7 S           1.0351   -0.3603    0.0000 S.2     1  LIG1       -0.0701
      8 C           1.5200    0.3071    0.0000 C.ar    1  LIG1        0.0661
      9 N           1.0351    0.9745    0.0000 N.ar    1  LIG1       -0.2472
     10 C          -0.4640   -0.5179    0.0000 C.ar    1  LIG1        0.2669
     11 O          -0.4640   -1.3429    0.0000 O.2     1  LIG1       -0.2664
     12 H          -2.7598    0.2224    0.0000 H       1  LIG1        0.0457
     13 H          -1.9554   -1.1989    0.9121 H       1  LIG1        0.0457
     14 H          -1.9523   -1.1645   -0.9370 H       1  LIG1        0.0457
     15 H          -2.1324    1.2704    0.0000 H       1  LIG1        0.0810
     16 H          -0.4640    2.2336    0.0000 H       1  LIG1        0.0654
     17 H           2.6215    0.3071    0.0000 H       1  LIG1        0.0907
@<TRIPOS>BOND
     1     1     2    1
     2     2     3   ar
     3     3     4   ar
     4     4     5   ar
     5     5     6   ar
     6     6     7   ar
     7     7     8   ar
     8     8     9   ar
     9     5     9   ar
    10     6    10   ar
    11     2    10   ar
    12    10    11    2
    13     1    12    1
    14     1    13    1
    15     1    14    1
    16     3    15    1
    17     4    16    1
    18     8    17    1
