@<TRIPOS>MOLECULE
O=c1[nH]ncc2ncsc12
 13 14 0 0 0
SMALL
GASTEIGER
Energy = 0

@<TRIPOS>ATOM
      1 O          -0.5997   -1.3939    0.0000 O.2     1  LIG1       -0.2651
      2 C          -0.5997   -0.5689    0.0000 C.ar    1  LIG1        0.2806
      3 N          -1.3142   -0.1564    0.0000 N.ar    1  LIG1       -0.2422
      4 N          -1.3142    0.6686    0.0000 N.ar    1  LIG1       -0.1772
      5 C          -0.5997    1.0811    0.0000 C.ar    1  LIG1        0.0744
      6 C           0.1147    0.6686    0.0000 C.ar    1  LIG1        0.1031
      7 C           0.1147   -0.1564    0.0000 C.ar    1  LIG1        0.1061
      8 S           0.8994   -0.4113    0.0000 S.2     1  LIG1       -0.0700
      9 C           1.3843    0.2561    0.0000 C.ar    1  LIG1        0.0661
     10 N           0.8994    0.9236    0.0000 N.ar    1  LIG1       -0.2457
     11 H          -2.2517   -0.6977    0.0000 H       1  LIG1        0.1921
     12 H          -0.5997    2.1826    0.0000 H       1  LIG1        0.0869
     13 H           2.4858    0.2561    0.0000 H       1  LIG1        0.0908
@<TRIPOS>BOND
     1     1     2    2
     2     2     3   ar
     3     3     4   ar
     4     4     5   ar
     5     5     6   ar
     6     6     7   ar
     7     2     7   ar
     8     7     8   ar
     9     8     9   ar
    10     9    10   ar
    11     6    10   ar
    12     3    11    1
    13     5    12    1
    14     9    13    1
