@<TRIPOS>MOLECULE
c1onc2ncccc12
 13 14 0 0 0
SMALL
GASTEIGER
Energy = 0

@<TRIPOS>ATOM
      1 O           1.3745    0.0257    0.0000 O.2     1  LIG1       -0.3603
      2 C           0.8896    0.6931    0.0000 C.ar    1  LIG1        0.1335
      3 C           0.1050    0.4382    0.0000 C.ar    1  LIG1        0.0598
      4 C          -0.6095    0.8507    0.0000 C.ar    1  LIG1       -0.0465
      5 C          -1.3239    0.4382    0.0000 C.ar    1  LIG1       -0.0428
      6 C          -1.3239   -0.3868    0.0000 C.ar    1  LIG1        0.0301
      7 N          -0.6095   -0.7993    0.0000 N.ar    1  LIG1       -0.2330
      8 C           0.1050   -0.3868    0.0000 C.ar    1  LIG1        0.2021
      9 N           0.8896   -0.6418    0.0000 N.ar    1  LIG1       -0.0582
     10 H           1.2300    1.7407    0.0000 H       1  LIG1        0.1064
     11 H          -0.6095    1.9522    0.0000 H       1  LIG1        0.0626
     12 H          -2.2778    0.9889    0.0000 H       1  LIG1        0.0633
     13 H          -2.2778   -0.9375    0.0000 H       1  LIG1        0.0830
@<TRIPOS>BOND
     1     1     2   ar
     2     2     3   ar
     3     3     4   ar
     4     4     5   ar
     5     5     6   ar
     6     6     7   ar
     7     7     8   ar
     8     3     8   ar
     9     8     9   ar
    10     1     9   ar
    11     2    10    1
    12     4    11    1
    13     5    12    1
    14     6    13    1
