@<TRIPOS>MOLECULE
Cn1c(=O)cnn2ccnc12
 17 18 0 0 0
SMALL
GASTEIGER
Energy = 0

@<TRIPOS>ATOM
      1 C           0.2873   -1.4173    0.0000 C.3     1  LIG1        0.0181
      2 N           0.2873   -0.5923    0.0000 N.ar    1  LIG1       -0.2792
      3 C           1.0018   -0.1798    0.0000 C.ar    1  LIG1        0.2736
      4 O           1.7162   -0.5923    0.0000 O.2     1  LIG1       -0.2659
      5 C           1.0018    0.6452    0.0000 C.ar    1  LIG1        0.1129
      6 N           0.2873    1.0577    0.0000 N.ar    1  LIG1       -0.1669
      7 N          -0.4272    0.6452    0.0000 N.ar    1  LIG1       -0.2053
      8 C          -1.2118    0.9001    0.0000 C.ar    1  LIG1        0.0510
      9 C          -1.6967    0.2327    0.0000 C.ar    1  LIG1        0.0496
     10 N          -1.2118   -0.4348    0.0000 N.ar    1  LIG1       -0.2189
     11 C          -0.4272   -0.1798    0.0000 C.ar    1  LIG1        0.2343
     12 H           1.3619   -1.7978    0.0000 H       1  LIG1        0.0458
     13 H          -0.2712   -1.8120   -0.9121 H       1  LIG1        0.0458
     14 H          -0.2429   -1.7920    0.9370 H       1  LIG1        0.0458
     15 H           1.9557    1.1960    0.0000 H       1  LIG1        0.0903
     16 H          -1.5522    1.9477    0.0000 H       1  LIG1        0.0847
     17 H          -2.7982    0.2327    0.0000 H       1  LIG1        0.0846
@<TRIPOS>BOND
     1     1     2    1
     2     2     3   ar
     3     3     4    2
     4     3     5   ar
     5     5     6   ar
     6     6     7   ar
     7     7     8   ar
     8     8     9   ar
     9     9    10   ar
    10    10    11   ar
    11     2    11   ar
    12     7    11   ar
    13     1    12    1
    14     1    13    1
    15     1    14    1
    16     5    15    1
    17     8    16    1
    18     9    17    1
