@<TRIPOS>MOLECULE
c1nnc2[nH]ccnc12
 13 14 0 0 0
SMALL
GASTEIGER
Energy = 0

@<TRIPOS>ATOM
      1 N           0.5754   -0.8135    0.0000 N.ar    1  LIG1       -0.3418
      2 C           1.2899   -0.4010    0.0000 C.ar    1  LIG1        0.0216
      3 C           1.2899    0.4240    0.0000 C.ar    1  LIG1        0.0444
      4 N           0.5754    0.8365    0.0000 N.ar    1  LIG1       -0.2488
      5 C          -0.1391    0.4240    0.0000 C.ar    1  LIG1        0.1275
      6 C          -0.9237    0.6789    0.0000 C.ar    1  LIG1        0.0789
      7 N          -1.4086    0.0115    0.0000 N.ar    1  LIG1       -0.1534
      8 N          -0.9237   -0.6560    0.0000 N.ar    1  LIG1       -0.1294
      9 C          -0.1391   -0.4010    0.0000 C.ar    1  LIG1        0.1802
     10 H           0.5754   -1.8960    0.0000 H       1  LIG1        0.1669
     11 H           2.2438   -0.9518    0.0000 H       1  LIG1        0.0823
     12 H           2.2438    0.9748    0.0000 H       1  LIG1        0.0844
     13 H          -1.2641    1.7265    0.0000 H       1  LIG1        0.0871
@<TRIPOS>BOND
     1     1     2   ar
     2     2     3   ar
     3     3     4   ar
     4     4     5   ar
     5     5     6   ar
     6     6     7   ar
     7     7     8   ar
     8     8     9   ar
     9     1     9   ar
    10     5     9   ar
    11     1    10    1
    12     2    11    1
    13     3    12    1
    14     6    13    1
