@<TRIPOS>MOLECULE
c1cn2cncc2[nH]1
 13 14 0 0 0
SMALL
GASTEIGER
Energy = 0

@<TRIPOS>ATOM
      1 N           0.7941   -0.6625    0.0000 N.ar    1  LIG1       -0.3447
      2 C           1.2790    0.0050    0.0000 C.ar    1  LIG1        0.0200
      3 C           0.7941    0.6724    0.0000 C.ar    1  LIG1        0.0285
      4 N           0.0095    0.4175    0.0000 N.ar    1  LIG1       -0.2907
      5 C          -0.7751    0.6724    0.0000 C.ar    1  LIG1        0.1015
      6 N          -1.2601    0.0050    0.0000 N.ar    1  LIG1       -0.2415
      7 C          -0.7751   -0.6625    0.0000 C.ar    1  LIG1        0.0702
      8 C           0.0095   -0.4075    0.0000 C.ar    1  LIG1        0.1350
      9 H           1.1286   -1.6920    0.0000 H       1  LIG1        0.1668
     10 H           2.3805    0.0050    0.0000 H       1  LIG1        0.0822
     11 H           1.1345    1.7200    0.0000 H       1  LIG1        0.0828
     12 H          -1.1154    1.7200    0.0000 H       1  LIG1        0.1032
     13 H          -1.1154   -1.7101    0.0000 H       1  LIG1        0.0867
@<TRIPOS>BOND
     1     1     2   ar
     2     2     3   ar
     3     3     4   ar
     4     4     5   ar
     5     5     6   ar
     6     6     7   ar
     7     7     8   ar
     8     1     8   ar
     9     4     8   ar
    10     1     9    1
    11     2    10    1
    12     3    11    1
    13     5    12    1
    14     7    13    1
