@<TRIPOS>MOLECULE
Cn1c(=O)ccn2ncnc12
 17 18 0 0 0
SMALL
GASTEIGER
Energy = 0

@<TRIPOS>ATOM
      1 C           0.3081   -1.4151    0.0000 C.3     1  LIG1        0.0180
      2 N           0.3081   -0.5901    0.0000 N.ar    1  LIG1       -0.2804
      3 C           1.0225   -0.1776    0.0000 C.ar    1  LIG1        0.2551
      4 O           1.7370   -0.5901    0.0000 O.2     1  LIG1       -0.2676
      5 C           1.0225    0.6474    0.0000 C.ar    1  LIG1        0.0213
      6 C           0.3081    1.0599    0.0000 C.ar    1  LIG1        0.0380
      7 N          -0.4064    0.6474    0.0000 N.ar    1  LIG1       -0.2053
      8 N          -1.1910    0.9023    0.0000 N.ar    1  LIG1       -0.1524
      9 C          -1.6760    0.2349    0.0000 C.ar    1  LIG1        0.1405
     10 N          -1.1910   -0.4326    0.0000 N.ar    1  LIG1       -0.1988
     11 C          -0.4064   -0.1776    0.0000 C.ar    1  LIG1        0.2357
     12 H           1.3827   -1.7956    0.0000 H       1  LIG1        0.0458
     13 H          -0.2504   -1.8098   -0.9121 H       1  LIG1        0.0458
     14 H          -0.2221   -1.7898    0.9370 H       1  LIG1        0.0458
     15 H           1.9764    1.1981    0.0000 H       1  LIG1        0.0687
     16 H           0.3081    2.1614    0.0000 H       1  LIG1        0.0833
     17 H          -2.7775    0.2349    0.0000 H       1  LIG1        0.1066
@<TRIPOS>BOND
     1     1     2    1
     2     2     3   ar
     3     3     4    2
     4     3     5   ar
     5     5     6   ar
     6     6     7   ar
     7     7     8   ar
     8     8     9   ar
     9     9    10   ar
    10    10    11   ar
    11     2    11   ar
    12     7    11   ar
    13     1    12    1
    14     1    13    1
    15     1    14    1
    16     5    15    1
    17     6    16    1
    18     9    17    1
