@<TRIPOS>MOLECULE
Cn1cc2ncnnc2nc1=O
 17 18 0 0 0
SMALL
GASTEIGER
Energy = 0

@<TRIPOS>ATOM
      1 C           1.7727    0.8562    0.0000 C.3     1  LIG1        0.0162
      2 N           1.0582    0.4437    0.0000 N.ar    1  LIG1       -0.3000
      3 C           0.3437    0.8562    0.0000 C.ar    1  LIG1        0.0382
      4 C          -0.3707    0.4437    0.0000 C.ar    1  LIG1        0.1277
      5 N          -1.0852    0.8562    0.0000 N.ar    1  LIG1       -0.2290
      6 C          -1.7997    0.4437    0.0000 C.ar    1  LIG1        0.1391
      7 N          -1.7997   -0.3813    0.0000 N.ar    1  LIG1       -0.1357
      8 N          -1.0852   -0.7938    0.0000 N.ar    1  LIG1       -0.1259
      9 C          -0.3707   -0.3813    0.0000 C.ar    1  LIG1        0.2064
     10 N           0.3437   -0.7938    0.0000 N.ar    1  LIG1       -0.1698
     11 C           1.0582   -0.3813    0.0000 C.ar    1  LIG1        0.3502
     12 O           1.7727   -0.7938    0.0000 O.2     1  LIG1       -0.2444
     13 H           1.5650    1.9771    0.0000 H       1  LIG1        0.0457
     14 H           2.3937    0.5699   -0.9121 H       1  LIG1        0.0457
     15 H           2.3624    0.5844    0.9370 H       1  LIG1        0.0457
     16 H           0.3437    1.9577    0.0000 H       1  LIG1        0.0833
     17 H          -2.7536    0.9945    0.0000 H       1  LIG1        0.1066
@<TRIPOS>BOND
     1     1     2    1
     2     2     3   ar
     3     3     4   ar
     4     4     5   ar
     5     5     6   ar
     6     6     7   ar
     7     7     8   ar
     8     8     9   ar
     9     4     9   ar
    10     9    10   ar
    11    10    11   ar
    12     2    11   ar
    13    11    12    2
    14     1    13    1
    15     1    14    1
    16     1    15    1
    17     3    16    1
    18     6    17    1
