@<TRIPOS>MOLECULE
Cn1ccc2sncc2c1=O
 17 18 0 0 0
SMALL
GASTEIGER
Energy = 0

@<TRIPOS>ATOM
      1 C          -1.8990   -0.6767    0.0000 C.3     1  LIG1        0.0147
      2 N          -1.1845   -0.2642    0.0000 N.ar    1  LIG1       -0.3177
      3 C          -1.1845    0.5608    0.0000 C.ar    1  LIG1        0.0087
      4 C          -0.4700    0.9733    0.0000 C.ar    1  LIG1       -0.0295
      5 C           0.2444    0.5608    0.0000 C.ar    1  LIG1        0.0459
      6 C           0.2444   -0.2642    0.0000 C.ar    1  LIG1        0.0733
      7 C           1.0291   -0.5192    0.0000 C.ar    1  LIG1        0.0496
      8 N           1.5140    0.1483    0.0000 N.ar    1  LIG1       -0.2174
      9 S           1.0291    0.8157    0.0000 S.2     1  LIG1        0.0118
     10 C          -0.4700   -0.6767    0.0000 C.ar    1  LIG1        0.2608
     11 O          -0.4700   -1.5017    0.0000 O.2     1  LIG1       -0.2670
     12 H          -2.7658    0.0637    0.0000 H       1  LIG1        0.0457
     13 H          -1.9616   -1.3577    0.9121 H       1  LIG1        0.0457
     14 H          -1.9584   -1.3233   -0.9370 H       1  LIG1        0.0457
     15 H          -2.1384    1.1116    0.0000 H       1  LIG1        0.0810
     16 H          -0.4700    2.0748    0.0000 H       1  LIG1        0.0644
     17 H           1.3695   -1.5668    0.0000 H       1  LIG1        0.0844
@<TRIPOS>BOND
     1     1     2    1
     2     2     3   ar
     3     3     4   ar
     4     4     5   ar
     5     5     6   ar
     6     6     7   ar
     7     7     8   ar
     8     8     9   ar
     9     5     9   ar
    10     6    10   ar
    11     2    10   ar
    12    10    11    2
    13     1    12    1
    14     1    13    1
    15     1    14    1
    16     3    15    1
    17     4    16    1
    18     7    17    1
