@<TRIPOS>MOLECULE
O=c1ccn2ncccc2c1
 17 18 0 0 0
SMALL
GASTEIGER
Energy = 0

@<TRIPOS>ATOM
      1 O           1.9088   -0.7484    0.0000 O.2     1  LIG1       -0.2878
      2 C           1.1943   -0.3359    0.0000 C.ar    1  LIG1        0.1824
      3 C           1.1943    0.4891    0.0000 C.ar    1  LIG1        0.0033
      4 C           0.4799    0.9016    0.0000 C.ar    1  LIG1        0.0334
      5 N          -0.2346    0.4891    0.0000 N.ar    1  LIG1       -0.2397
      6 N          -0.9491    0.9016    0.0000 N.ar    1  LIG1       -0.1749
      7 C          -1.6635    0.4891    0.0000 C.ar    1  LIG1        0.0484
      8 C          -1.6635   -0.3359    0.0000 C.ar    1  LIG1       -0.0399
      9 C          -0.9491   -0.7484    0.0000 C.ar    1  LIG1       -0.0347
     10 C          -0.2346   -0.3359    0.0000 C.ar    1  LIG1        0.0690
     11 C           0.4799   -0.7484    0.0000 C.ar    1  LIG1        0.0105
     12 H           2.1482    1.0398    0.0000 H       1  LIG1        0.0671
     13 H           0.4799    2.0031    0.0000 H       1  LIG1        0.0831
     14 H          -2.6174    1.0398    0.0000 H       1  LIG1        0.0847
     15 H          -2.6174   -0.8866    0.0000 H       1  LIG1        0.0634
     16 H          -0.9491   -1.8499    0.0000 H       1  LIG1        0.0639
     17 H           0.4799   -1.8499    0.0000 H       1  LIG1        0.0677
@<TRIPOS>BOND
     1     1     2    2
     2     2     3   ar
     3     3     4   ar
     4     4     5   ar
     5     5     6   ar
     6     6     7   ar
     7     7     8   ar
     8     8     9   ar
     9     9    10   ar
    10     5    10   ar
    11    10    11   ar
    12     2    11   ar
    13     3    12    1
    14     4    13    1
    15     7    14    1
    16     8    15    1
    17     9    16    1
    18    11    17    1
