@<TRIPOS>MOLECULE
Cn1c(=O)[nH]c2nnccc12
 17 18 0 0 0
SMALL
GASTEIGER
Energy = 0

@<TRIPOS>ATOM
      1 C           0.8490   -1.3482    0.0000 C.3     1  LIG1        0.0168
      2 N           0.5941   -0.5635    0.0000 N.ar    1  LIG1       -0.2937
      3 C           1.0790    0.1039    0.0000 C.ar    1  LIG1        0.3285
      4 O           1.9040    0.1039    0.0000 O.2     1  LIG1       -0.2465
      5 N           0.5941    0.7713    0.0000 N.ar    1  LIG1       -0.2894
      6 C          -0.1906    0.5164    0.0000 C.ar    1  LIG1        0.1808
      7 N          -0.9050    0.9289    0.0000 N.ar    1  LIG1       -0.1294
      8 N          -1.6195    0.5164    0.0000 N.ar    1  LIG1       -0.1556
      9 C          -1.6195   -0.3086    0.0000 C.ar    1  LIG1        0.0521
     10 C          -0.9050   -0.7211    0.0000 C.ar    1  LIG1       -0.0146
     11 C          -0.1906   -0.3086    0.0000 C.ar    1  LIG1        0.0916
     12 H           1.9886   -1.3781    0.0000 H       1  LIG1        0.0457
     13 H           0.4398   -1.8961   -0.9121 H       1  LIG1        0.0457
     14 H           0.4605   -1.8684    0.9370 H       1  LIG1        0.0457
     15 H           0.9286    1.8008    0.0000 H       1  LIG1        0.1719
     16 H          -2.5734   -0.8594    0.0000 H       1  LIG1        0.0849
     17 H          -0.9050   -1.8226    0.0000 H       1  LIG1        0.0655
@<TRIPOS>BOND
     1     1     2    1
     2     2     3   ar
     3     3     4    2
     4     3     5   ar
     5     5     6   ar
     6     6     7   ar
     7     7     8   ar
     8     8     9   ar
     9     9    10   ar
    10    10    11   ar
    11     2    11   ar
    12     6    11   ar
    13     1    12    1
    14     1    13    1
    15     1    14    1
    16     5    15    1
    17     9    16    1
    18    10    17    1
