@<TRIPOS>MOLECULE
Cn1cnc2[nH]cnc(=O)c12
 17 18 0 0 0
SMALL
GASTEIGER
Energy = 0

@<TRIPOS>ATOM
      1 C           1.1609   -1.1535    0.0000 C.3     1  LIG1        0.0135
      2 N           0.9060   -0.3689    0.0000 N.ar    1  LIG1       -0.3277
      3 C           1.3909    0.2985    0.0000 C.ar    1  LIG1        0.0986
      4 N           0.9060    0.9660    0.0000 N.ar    1  LIG1       -0.2180
      5 C           0.1213    0.7110    0.0000 C.ar    1  LIG1        0.1628
      6 C           0.1213   -0.1140    0.0000 C.ar    1  LIG1        0.1526
      7 C          -0.5931   -0.5265    0.0000 C.ar    1  LIG1        0.2988
      8 O          -0.5931   -1.3515    0.0000 O.2     1  LIG1       -0.2635
      9 N          -1.3076   -0.1140    0.0000 N.ar    1  LIG1       -0.1977
     10 C          -1.3076    0.7110    0.0000 C.ar    1  LIG1        0.0988
     11 N          -0.5931    1.1235    0.0000 N.ar    1  LIG1       -0.3291
     12 H           2.3005   -1.1834    0.0000 H       1  LIG1        0.0456
     13 H           0.7517   -1.7014   -0.9121 H       1  LIG1        0.0456
     14 H           0.7724   -1.6737    0.9370 H       1  LIG1        0.0456
     15 H           2.4924    0.2985    0.0000 H       1  LIG1        0.1029
     16 H          -2.2615    1.2618    0.0000 H       1  LIG1        0.1028
     17 H          -0.5931    2.2060    0.0000 H       1  LIG1        0.1682
@<TRIPOS>BOND
     1     1     2    1
     2     2     3   ar
     3     3     4   ar
     4     4     5   ar
     5     5     6   ar
     6     2     6   ar
     7     6     7   ar
     8     7     8    2
     9     7     9   ar
    10     9    10   ar
    11    10    11   ar
    12     5    11   ar
    13     1    12    1
    14     1    13    1
    15     1    14    1
    16     3    15    1
    17    10    16    1
    18    11    17    1
