@<TRIPOS>MOLECULE
Cn1ncccc1=O
 14 14 0 0 0
SMALL
GASTEIGER
Energy = 0

@<TRIPOS>ATOM
      1 C           0.2060   -1.3090    0.0000 C.3     1  LIG1        0.0339
      2 N           0.2060   -0.4840    0.0000 N.ar    1  LIG1       -0.2326
      3 N           0.9205   -0.0715    0.0000 N.ar    1  LIG1       -0.1769
      4 C           0.9205    0.7535    0.0000 C.ar    1  LIG1        0.0482
      5 C           0.2060    1.1660    0.0000 C.ar    1  LIG1       -0.0368
      6 C          -0.5085    0.7535    0.0000 C.ar    1  LIG1        0.0058
      7 C          -0.5085   -0.0715    0.0000 C.ar    1  LIG1        0.2670
      8 O          -1.2230   -0.4840    0.0000 O.2     1  LIG1       -0.2662
      9 H           1.2806   -1.6895    0.0000 H       1  LIG1        0.0474
     10 H          -0.3525   -1.7037   -0.9121 H       1  LIG1        0.0474
     11 H          -0.3242   -1.6837    0.9370 H       1  LIG1        0.0474
     12 H           1.8744    1.3043    0.0000 H       1  LIG1        0.0847
     13 H           0.2060    2.2675    0.0000 H       1  LIG1        0.0635
     14 H          -1.4624    1.3043    0.0000 H       1  LIG1        0.0672
@<TRIPOS>BOND
     1     1     2    1
     2     2     3   ar
     3     3     4   ar
     4     4     5   ar
     5     5     6   ar
     6     6     7   ar
     7     2     7   ar
     8     7     8    2
     9     1     9    1
    10     1    10    1
    11     1    11    1
    12     4    12    1
    13     5    13    1
    14     6    14    1
