@<TRIPOS>MOLECULE
c1nnc2cc[nH]nc12
 13 14 0 0 0
SMALL
GASTEIGER
Energy = 0

@<TRIPOS>ATOM
      1 N           1.2776   -0.4027    0.0000 N.ar    1  LIG1       -0.2841
      2 C           1.2776    0.4223    0.0000 C.ar    1  LIG1        0.0230
      3 C           0.5631    0.8348    0.0000 C.ar    1  LIG1       -0.0148
      4 C          -0.1514    0.4223    0.0000 C.ar    1  LIG1        0.1160
      5 N          -0.9360    0.6772    0.0000 N.ar    1  LIG1       -0.1475
      6 N          -1.4209    0.0098    0.0000 N.ar    1  LIG1       -0.1548
      7 C          -0.9360   -0.6576    0.0000 C.ar    1  LIG1        0.0791
      8 C          -0.1514   -0.4027    0.0000 C.ar    1  LIG1        0.1307
      9 N           0.5631   -0.8152    0.0000 N.ar    1  LIG1       -0.1707
     10 H           2.2151   -0.9440    0.0000 H       1  LIG1        0.1882
     11 H           2.2315    0.9731    0.0000 H       1  LIG1        0.0824
     12 H           0.5631    1.9363    0.0000 H       1  LIG1        0.0655
     13 H          -1.2764   -1.7052    0.0000 H       1  LIG1        0.0871
@<TRIPOS>BOND
     1     1     2   ar
     2     2     3   ar
     3     3     4   ar
     4     4     5   ar
     5     5     6   ar
     6     6     7   ar
     7     7     8   ar
     8     4     8   ar
     9     8     9   ar
    10     1     9   ar
    11     1    10    1
    12     2    11    1
    13     3    12    1
    14     7    13    1
