@<TRIPOS>MOLECULE
Cn1cnc2csnc2c1=O
 16 17 0 0 0
SMALL
GASTEIGER
Energy = 0

@<TRIPOS>ATOM
      1 C           1.9472   -0.5979    0.0000 C.3     1  LIG1        0.0161
      2 N           1.2327   -0.1854    0.0000 N.ar    1  LIG1       -0.3006
      3 C           1.2327    0.6396    0.0000 C.ar    1  LIG1        0.0991
      4 N           0.5182    1.0521    0.0000 N.ar    1  LIG1       -0.2348
      5 C          -0.1962    0.6396    0.0000 C.ar    1  LIG1        0.1047
      6 C          -0.9808    0.8945    0.0000 C.ar    1  LIG1        0.0220
      7 S          -1.4658    0.2271    0.0000 S.2     1  LIG1        0.0062
      8 N          -0.9808   -0.4404    0.0000 N.ar    1  LIG1       -0.2033
      9 C          -0.1962   -0.1854    0.0000 C.ar    1  LIG1        0.1624
     10 C           0.5182   -0.5979    0.0000 C.ar    1  LIG1        0.2804
     11 O           0.5182   -1.4229    0.0000 O.2     1  LIG1       -0.2652
     12 H           2.8140    0.1425    0.0000 H       1  LIG1        0.0457
     13 H           2.0098   -1.2789   -0.9121 H       1  LIG1        0.0457
     14 H           2.0066   -1.2445    0.9370 H       1  LIG1        0.0457
     15 H           2.1866    1.1904    0.0000 H       1  LIG1        0.1030
     16 H          -1.3211    1.9421    0.0000 H       1  LIG1        0.0730
@<TRIPOS>BOND
     1     1     2    1
     2     2     3   ar
     3     3     4   ar
     4     4     5   ar
     5     5     6   ar
     6     6     7   ar
     7     7     8   ar
     8     8     9   ar
     9     5     9   ar
    10     9    10   ar
    11     2    10   ar
    12    10    11    2
    13     1    12    1
    14     1    13    1
    15     1    14    1
    16     3    15    1
    17     6    16    1
