@<TRIPOS>MOLECULE
O=c1ccnc2[nH]ncn12
 14 15 0 0 0
SMALL
GASTEIGER
Energy = 0

@<TRIPOS>ATOM
      1 O           0.5165   -1.4664    0.0000 O.2     1  LIG1       -0.2672
      2 C           0.5165   -0.6414    0.0000 C.ar    1  LIG1        0.2606
      3 C           1.2310   -0.2289    0.0000 C.ar    1  LIG1        0.0216
      4 C           1.2310    0.5961    0.0000 C.ar    1  LIG1        0.0365
      5 N           0.5165    1.0086    0.0000 N.ar    1  LIG1       -0.2204
      6 C          -0.1980    0.5961    0.0000 C.ar    1  LIG1        0.2329
      7 N          -0.9826    0.8510    0.0000 N.ar    1  LIG1       -0.2444
      8 N          -1.4675    0.1836    0.0000 N.ar    1  LIG1       -0.1608
      9 C          -0.9826   -0.4839    0.0000 C.ar    1  LIG1        0.1261
     10 N          -0.1980   -0.2289    0.0000 N.ar    1  LIG1       -0.2341
     11 H           2.1849   -0.7797    0.0000 H       1  LIG1        0.0687
     12 H           2.1849    1.1469    0.0000 H       1  LIG1        0.0832
     13 H          -1.3171    1.8805    0.0000 H       1  LIG1        0.1920
     14 H          -1.3230   -1.5315    0.0000 H       1  LIG1        0.1052
@<TRIPOS>BOND
     1     1     2    2
     2     2     3   ar
     3     3     4   ar
     4     4     5   ar
     5     5     6   ar
     6     6     7   ar
     7     7     8   ar
     8     8     9   ar
     9     9    10   ar
    10     2    10   ar
    11     6    10   ar
    12     3    11    1
    13     4    12    1
    14     7    13    1
    15     9    14    1
