@<TRIPOS>MOLECULE
c1nc2ncsc2[nH]1
 11 12 0 0 0
SMALL
GASTEIGER
Energy = 0

@<TRIPOS>ATOM
      1 N           0.9006   -0.5687    0.0000 N.ar    1  LIG1       -0.3376
      2 C           1.3856    0.0987    0.0000 C.ar    1  LIG1        0.0966
      3 N           0.9006    0.7661    0.0000 N.ar    1  LIG1       -0.2161
      4 C           0.1160    0.5112    0.0000 C.ar    1  LIG1        0.1852
      5 C           0.1160   -0.3138    0.0000 C.ar    1  LIG1        0.1248
      6 S          -0.6686   -0.5687    0.0000 S.2     1  LIG1       -0.0562
      7 C          -1.1535    0.0987    0.0000 C.ar    1  LIG1        0.0691
      8 N          -0.6686    0.7661    0.0000 N.ar    1  LIG1       -0.2268
      9 H           1.2351   -1.5982    0.0000 H       1  LIG1        0.1673
     10 H           2.4871    0.0987    0.0000 H       1  LIG1        0.1028
     11 H          -2.2550    0.0987    0.0000 H       1  LIG1        0.0909
@<TRIPOS>BOND
     1     1     2   ar
     2     2     3   ar
     3     3     4   ar
     4     4     5   ar
     5     1     5   ar
     6     5     6   ar
     7     6     7   ar
     8     7     8   ar
     9     4     8   ar
    10     1     9    1
    11     2    10    1
    12     7    11    1
