@<TRIPOS>MOLECULE
CN1C=Nc2ccncc2S1(=O)=O
 20 21 0 0 0
SMALL
GASTEIGER
Energy = 0

@<TRIPOS>ATOM
      1 C           1.8050   -0.4144    0.0000 C.3     1  LIG1        0.0245
      2 N           1.0905   -0.0019    0.0000 N.pl3   1  LIG1       -0.1954
      3 C           1.0905    0.8231    0.0000 C.cat   1  LIG1        0.1042
      4 N           0.3760    1.2356    0.0000 N.2     1  LIG1       -0.2369
      5 C          -0.3385    0.8231    0.0000 C.ar    1  LIG1        0.0948
      6 C          -1.0529    1.2356    0.0000 C.ar    1  LIG1       -0.0162
      7 C          -1.7674    0.8231    0.0000 C.ar    1  LIG1        0.0297
      8 N          -1.7674   -0.0019    0.0000 N.ar    1  LIG1       -0.2612
      9 C          -1.0529   -0.4144    0.0000 C.ar    1  LIG1        0.0563
     10 C          -0.3385   -0.0019    0.0000 C.ar    1  LIG1        0.1519
     11 S           0.3760   -0.4144    0.0000 S.O2    1  LIG1        0.0787
     12 O           0.6198   -1.2026    0.0000 O.2     1  LIG1       -0.1496
     13 O           0.1322   -1.2026    0.0000 O.2     1  LIG1       -0.1496
     14 H           2.6718    0.3260    0.0000 H       1  LIG1        0.0446
     15 H           1.8676   -1.0954   -0.9121 H       1  LIG1        0.0446
     16 H           1.8644   -1.0610    0.9370 H       1  LIG1        0.0446
     17 H           2.0444    1.3739    0.0000 H       1  LIG1        0.1015
     18 H          -1.0529    2.3371    0.0000 H       1  LIG1        0.0654
     19 H          -2.7213    1.3739    0.0000 H       1  LIG1        0.0830
     20 H          -1.0529   -1.5159    0.0000 H       1  LIG1        0.0850
@<TRIPOS>BOND
     1     1     2    1
     2     2     3    1
     3     3     4    2
     4     4     5    1
     5     5     6   ar
     6     6     7   ar
     7     7     8   ar
     8     8     9   ar
     9     9    10   ar
    10     5    10   ar
    11    10    11    1
    12     2    11    1
    13    11    12    2
    14    11    13    2
    15     1    14    1
    16     1    15    1
    17     1    16    1
    18     3    17    1
    19     6    18    1
    20     7    19    1
    21     9    20    1
