@<TRIPOS>MOLECULE
Cn1[nH]c2ccncc2c1=O
 18 19 0 0 0
SMALL
GASTEIGER
Energy = 0

@<TRIPOS>ATOM
      1 C           1.9141    0.1599    0.0000 C.3     1  LIG1        0.0319
      2 N           1.0891    0.1599    0.0000 N.ar    1  LIG1       -0.2544
      3 N           0.6041    0.8274    0.0000 N.ar    1  LIG1       -0.2942
      4 C          -0.1805    0.5724    0.0000 C.ar    1  LIG1        0.0706
      5 C          -0.8950    0.9849    0.0000 C.ar    1  LIG1       -0.0181
      6 C          -1.6094    0.5724    0.0000 C.ar    1  LIG1        0.0296
      7 N          -1.6094   -0.2526    0.0000 N.ar    1  LIG1       -0.2624
      8 C          -0.8950   -0.6651    0.0000 C.ar    1  LIG1        0.0420
      9 C          -0.1805   -0.2526    0.0000 C.ar    1  LIG1        0.0835
     10 C           0.6041   -0.5075    0.0000 C.ar    1  LIG1        0.2760
     11 O           0.8591   -1.2921    0.0000 O.2     1  LIG1       -0.2655
     12 H           2.2946    1.2345    0.0000 H       1  LIG1        0.0473
     13 H           2.3088   -0.3986   -0.9121 H       1  LIG1        0.0473
     14 H           2.2888   -0.3703    0.9370 H       1  LIG1        0.0473
     15 H           0.9386    1.8569    0.0000 H       1  LIG1        0.1870
     16 H          -0.8950    2.0864    0.0000 H       1  LIG1        0.0654
     17 H          -2.5633    1.1231    0.0000 H       1  LIG1        0.0830
     18 H          -0.8950   -1.7666    0.0000 H       1  LIG1        0.0838
@<TRIPOS>BOND
     1     1     2    1
     2     2     3   ar
     3     3     4   ar
     4     4     5   ar
     5     5     6   ar
     6     6     7   ar
     7     7     8   ar
     8     8     9   ar
     9     4     9   ar
    10     9    10   ar
    11     2    10   ar
    12    10    11    2
    13     1    12    1
    14     1    13    1
    15     1    14    1
    16     3    15    1
    17     5    16    1
    18     6    17    1
    19     8    18    1
