@<TRIPOS>MOLECULE
Cn1ccc(=O)c2c(=O)[nH][nH]c12
 19 20 0 0 0
SMALL
GASTEIGER
Energy = 0

@<TRIPOS>ATOM
      1 C          -0.6000   -1.8197    0.0000 C.3     1  LIG1        0.0132
      2 N          -0.6000   -0.9947    0.0000 N.ar    1  LIG1       -0.3350
      3 C          -1.3145   -0.5822    0.0000 C.ar    1  LIG1        0.0098
      4 C          -1.3145    0.2428    0.0000 C.ar    1  LIG1        0.0021
      5 C          -0.6000    0.6553    0.0000 C.ar    1  LIG1        0.1962
      6 O          -0.6000    1.4803    0.0000 O.2     1  LIG1       -0.2869
      7 C           0.1145    0.2428    0.0000 C.ar    1  LIG1        0.1289
      8 C           0.1145   -0.5822    0.0000 C.ar    1  LIG1        0.1420
      9 N           0.8991   -0.8372    0.0000 N.ar    1  LIG1       -0.2814
     10 N           1.3840   -0.1697    0.0000 N.ar    1  LIG1       -0.2639
     11 C           0.8991    0.4977    0.0000 C.ar    1  LIG1        0.2775
     12 O           1.1540    1.2823    0.0000 O.2     1  LIG1       -0.2656
     13 H          -1.6746   -2.2002    0.0000 H       1  LIG1        0.0456
     14 H          -0.0415   -2.2144    0.9121 H       1  LIG1        0.0456
     15 H          -0.0698   -2.1944   -0.9370 H       1  LIG1        0.0456
     16 H          -2.2684   -1.1330    0.0000 H       1  LIG1        0.0810
     17 H          -2.2684    0.7936    0.0000 H       1  LIG1        0.0670
     18 H           1.2336   -1.8667    0.0000 H       1  LIG1        0.1884
     19 H           2.4665   -0.1697    0.0000 H       1  LIG1        0.1900
@<TRIPOS>BOND
     1     1     2    1
     2     2     3   ar
     3     3     4   ar
     4     4     5   ar
     5     5     6    2
     6     5     7   ar
     7     7     8   ar
     8     2     8   ar
     9     8     9   ar
    10     9    10   ar
    11    10    11   ar
    12     7    11   ar
    13    11    12    2
    14     1    13    1
    15     1    14    1
    16     1    15    1
    17     3    16    1
    18     4    17    1
    19     9    18    1
    20    10    19    1
