@<TRIPOS>MOLECULE
O=c1ccc2ccncc2[nH]1
 17 18 0 0 0
SMALL
GASTEIGER
Energy = 0

@<TRIPOS>ATOM
      1 O           1.9088    0.7132    0.0000 O.2     1  LIG1       -0.2679
      2 C           1.1943    0.3007    0.0000 C.ar    1  LIG1        0.2492
      3 N           0.4799    0.7132    0.0000 N.ar    1  LIG1       -0.3209
      4 C          -0.2346    0.3007    0.0000 C.ar    1  LIG1        0.0675
      5 C          -0.9491    0.7132    0.0000 C.ar    1  LIG1        0.0515
      6 N          -1.6635    0.3007    0.0000 N.ar    1  LIG1       -0.2612
      7 C          -1.6635   -0.5243    0.0000 C.ar    1  LIG1        0.0282
      8 C          -0.9491   -0.9368    0.0000 C.ar    1  LIG1       -0.0345
      9 C          -0.2346   -0.5243    0.0000 C.ar    1  LIG1        0.0014
     10 C           0.4799   -0.9368    0.0000 C.ar    1  LIG1       -0.0474
     11 C           1.1943   -0.5243    0.0000 C.ar    1  LIG1        0.0034
     12 H           0.4799    1.7957    0.0000 H       1  LIG1        0.1690
     13 H          -0.9491    1.8147    0.0000 H       1  LIG1        0.0851
     14 H          -2.6174   -1.0750    0.0000 H       1  LIG1        0.0830
     15 H          -0.9491   -2.0383    0.0000 H       1  LIG1        0.0639
     16 H           0.4799   -2.0383    0.0000 H       1  LIG1        0.0626
     17 H           2.1482   -1.0750    0.0000 H       1  LIG1        0.0672
@<TRIPOS>BOND
     1     1     2    2
     2     2     3   ar
     3     3     4   ar
     4     4     5   ar
     5     5     6   ar
     6     6     7   ar
     7     7     8   ar
     8     8     9   ar
     9     4     9   ar
    10     9    10   ar
    11    10    11   ar
    12     2    11   ar
    13     3    12    1
    14     5    13    1
    15     7    14    1
    16     8    15    1
    17    10    16    1
    18    11    17    1
