@<TRIPOS>MOLECULE
O=c1ccc2cnoc2[nH]1
 14 15 0 0 0
SMALL
GASTEIGER
Energy = 0

@<TRIPOS>ATOM
      1 O          -1.7842    0.6924    0.0000 O.2     1  LIG1       -0.2678
      2 C          -1.0697    0.2799    0.0000 C.ar    1  LIG1        0.2514
      3 N          -0.3552    0.6924    0.0000 N.ar    1  LIG1       -0.2909
      4 C           0.3592    0.2799    0.0000 C.ar    1  LIG1        0.2394
      5 C           0.3592   -0.5451    0.0000 C.ar    1  LIG1        0.0589
      6 C          -0.3552   -0.9576    0.0000 C.ar    1  LIG1       -0.0428
      7 C          -1.0697   -0.5451    0.0000 C.ar    1  LIG1        0.0036
      8 C           1.1439   -0.8000    0.0000 C.ar    1  LIG1        0.0794
      9 N           1.6288   -0.1326    0.0000 N.ar    1  LIG1       -0.0837
     10 O           1.1439    0.5349    0.0000 O.2     1  LIG1       -0.3364
     11 H          -0.3552    1.7749    0.0000 H       1  LIG1        0.1719
     12 H          -0.3552   -2.0591    0.0000 H       1  LIG1        0.0627
     13 H          -2.0236   -1.0959    0.0000 H       1  LIG1        0.0672
     14 H           1.4843   -1.8476    0.0000 H       1  LIG1        0.0871
@<TRIPOS>BOND
     1     1     2    2
     2     2     3   ar
     3     3     4   ar
     4     4     5   ar
     5     5     6   ar
     6     6     7   ar
     7     2     7   ar
     8     5     8   ar
     9     8     9   ar
    10     9    10   ar
    11     4    10   ar
    12     3    11    1
    13     6    12    1
    14     7    13    1
    15     8    14    1
