@<TRIPOS>MOLECULE
O=c1[nH][nH]c(=O)c2occc12
 15 16 0 0 0
SMALL
GASTEIGER
Energy = 0

@<TRIPOS>ATOM
      1 O          -0.4252   -1.6320    0.0000 O.2     1  LIG1       -0.2624
      2 C          -0.4252   -0.8070    0.0000 C.ar    1  LIG1        0.3063
      3 N          -1.1397   -0.3945    0.0000 N.ar    1  LIG1       -0.2603
      4 N          -1.1397    0.4305    0.0000 N.ar    1  LIG1       -0.2626
      5 C          -0.4252    0.8430    0.0000 C.ar    1  LIG1        0.2741
      6 O          -0.4252    1.6680    0.0000 O.2     1  LIG1       -0.2657
      7 C           0.2892    0.4305    0.0000 C.ar    1  LIG1        0.0911
      8 C           0.2892   -0.3945    0.0000 C.ar    1  LIG1        0.2052
      9 O           1.0739   -0.6495    0.0000 O.2     1  LIG1       -0.4572
     10 C           1.5588    0.0180    0.0000 C.ar    1  LIG1        0.0936
     11 C           1.0739    0.6854    0.0000 C.ar    1  LIG1       -0.0107
     12 H          -2.0772   -0.9358    0.0000 H       1  LIG1        0.1901
     13 H          -2.0772    0.9718    0.0000 H       1  LIG1        0.1900
     14 H           2.6603    0.0180    0.0000 H       1  LIG1        0.1030
     15 H           1.4143    1.7330    0.0000 H       1  LIG1        0.0657
@<TRIPOS>BOND
     1     1     2    2
     2     2     3   ar
     3     3     4   ar
     4     4     5   ar
     5     5     6    2
     6     5     7   ar
     7     7     8   ar
     8     2     8   ar
     9     8     9   ar
    10     9    10   ar
    11    10    11   ar
    12     7    11   ar
    13     3    12    1
    14     4    13    1
    15    10    14    1
    16    11    15    1
