@<TRIPOS>MOLECULE
c1nnn2cnccc12
 13 14 0 0 0
SMALL
GASTEIGER
Energy = 0

@<TRIPOS>ATOM
      1 C           1.2899    0.4382    0.0000 C.ar    1  LIG1        0.0314
      2 C           0.5754    0.8507    0.0000 C.ar    1  LIG1       -0.0165
      3 C          -0.1391    0.4382    0.0000 C.ar    1  LIG1        0.0899
      4 C          -0.9237    0.6931    0.0000 C.ar    1  LIG1        0.0771
      5 N          -1.4086    0.0257    0.0000 N.ar    1  LIG1       -0.1370
      6 N          -0.9237   -0.6418    0.0000 N.ar    1  LIG1       -0.0594
      7 N          -0.1391   -0.3868    0.0000 N.ar    1  LIG1       -0.2019
      8 C           0.5754   -0.7993    0.0000 C.ar    1  LIG1        0.1196
      9 N           1.2899   -0.3868    0.0000 N.ar    1  LIG1       -0.2436
     10 H           2.2438    0.9890    0.0000 H       1  LIG1        0.0831
     11 H           0.5754    1.9522    0.0000 H       1  LIG1        0.0654
     12 H          -1.2641    1.7407    0.0000 H       1  LIG1        0.0870
     13 H           0.5754   -1.9008    0.0000 H       1  LIG1        0.1048
@<TRIPOS>BOND
     1     1     2   ar
     2     2     3   ar
     3     3     4   ar
     4     4     5   ar
     5     5     6   ar
     6     6     7   ar
     7     3     7   ar
     8     7     8   ar
     9     8     9   ar
    10     1     9   ar
    11     1    10    1
    12     2    11    1
    13     4    12    1
    14     8    13    1
