@<TRIPOS>MOLECULE
Cn1nccn1
 11 11 0 0 0
SMALL
GASTEIGER
Energy = 0

@<TRIPOS>ATOM
      1 C          -1.2628   -0.0000    0.0000 C.3     1  LIG1        0.0499
      2 N          -0.4378   -0.0000    0.0000 N.ar    1  LIG1       -0.1865
      3 N           0.0471   -0.6674    0.0000 N.ar    1  LIG1       -0.1609
      4 C           0.8317   -0.4125    0.0000 C.ar    1  LIG1        0.0693
      5 C           0.8317    0.4125    0.0000 C.ar    1  LIG1        0.0693
      6 N           0.0471    0.6674    0.0000 N.ar    1  LIG1       -0.1609
      7 H          -1.6433   -1.0746    0.0000 H       1  LIG1        0.0490
      8 H          -1.6575    0.5585   -0.9121 H       1  LIG1        0.0490
      9 H          -1.6375    0.5302    0.9370 H       1  LIG1        0.0490
     10 H           1.7228   -1.0600    0.0000 H       1  LIG1        0.0864
     11 H           1.7228    1.0600    0.0000 H       1  LIG1        0.0864
@<TRIPOS>BOND
     1     1     2    1
     2     2     3   ar
     3     3     4   ar
     4     4     5   ar
     5     5     6   ar
     6     2     6   ar
     7     1     7    1
     8     1     8    1
     9     1     9    1
    10     4    10    1
    11     5    11    1
