@<TRIPOS>MOLECULE
Cn1ccnc2c(=O)ncnc12
 18 19 0 0 0
SMALL
GASTEIGER
Energy = 0

@<TRIPOS>ATOM
      1 C           0.7419   -1.6869    0.0000 C.3     1  LIG1        0.0133
      2 N           0.7419   -0.8619    0.0000 N.ar    1  LIG1       -0.3321
      3 C           1.4563   -0.4494    0.0000 C.ar    1  LIG1        0.0243
      4 C           1.4563    0.3756    0.0000 C.ar    1  LIG1        0.0447
      5 N           0.7419    0.7881    0.0000 N.ar    1  LIG1       -0.2451
      6 C           0.0274    0.3756    0.0000 C.ar    1  LIG1        0.1723
      7 C          -0.6871    0.7881    0.0000 C.ar    1  LIG1        0.3007
      8 O          -0.6871    1.6131    0.0000 O.2     1  LIG1       -0.2634
      9 N          -1.4015    0.3756    0.0000 N.ar    1  LIG1       -0.1957
     10 C          -1.4015   -0.4494    0.0000 C.ar    1  LIG1        0.1223
     11 N          -0.6871   -0.8619    0.0000 N.ar    1  LIG1       -0.2159
     12 C           0.0274   -0.4494    0.0000 C.ar    1  LIG1        0.1660
     13 H           1.8165   -2.0674    0.0000 H       1  LIG1        0.0456
     14 H           0.1834   -2.0816   -0.9121 H       1  LIG1        0.0456
     15 H           0.2117   -2.0616    0.9370 H       1  LIG1        0.0456
     16 H           2.4102   -1.0001    0.0000 H       1  LIG1        0.0825
     17 H           2.4102    0.9263    0.0000 H       1  LIG1        0.0844
     18 H          -2.3554   -1.0001    0.0000 H       1  LIG1        0.1049
@<TRIPOS>BOND
     1     1     2    1
     2     2     3   ar
     3     3     4   ar
     4     4     5   ar
     5     5     6   ar
     6     6     7   ar
     7     7     8    2
     8     7     9   ar
     9     9    10   ar
    10    10    11   ar
    11    11    12   ar
    12     2    12   ar
    13     6    12   ar
    14     1    13    1
    15     1    14    1
    16     1    15    1
    17     3    16    1
    18     4    17    1
    19    10    18    1
