@<TRIPOS>MOLECULE
Cn1cc2nnncc2n1
 15 16 0 0 0
SMALL
GASTEIGER
Energy = 0

@<TRIPOS>ATOM
      1 C           2.0581   -0.0024    0.0000 C.3     1  LIG1        0.0303
      2 N           1.2331   -0.0024    0.0000 N.ar    1  LIG1       -0.2717
      3 C           0.7482    0.6650    0.0000 C.ar    1  LIG1        0.0531
      4 C          -0.0364    0.4101    0.0000 C.ar    1  LIG1        0.1339
      5 N          -0.7509    0.8226    0.0000 N.ar    1  LIG1       -0.1262
      6 N          -1.4653    0.4101    0.0000 N.ar    1  LIG1       -0.0426
      7 N          -1.4653   -0.4149    0.0000 N.ar    1  LIG1       -0.1355
      8 C          -0.7509   -0.8274    0.0000 C.ar    1  LIG1        0.0808
      9 C          -0.0364   -0.4149    0.0000 C.ar    1  LIG1        0.1325
     10 N           0.7482   -0.6699    0.0000 N.ar    1  LIG1       -0.1682
     11 H           2.4386    1.0722    0.0000 H       1  LIG1        0.0473
     12 H           2.4528   -0.5609   -0.9121 H       1  LIG1        0.0473
     13 H           2.4328   -0.5326    0.9370 H       1  LIG1        0.0473
     14 H           1.0886    1.7126    0.0000 H       1  LIG1        0.0848
     15 H          -0.7509   -1.9289    0.0000 H       1  LIG1        0.0871
@<TRIPOS>BOND
     1     1     2    1
     2     2     3   ar
     3     3     4   ar
     4     4     5   ar
     5     5     6   ar
     6     6     7   ar
     7     7     8   ar
     8     8     9   ar
     9     4     9   ar
    10     9    10   ar
    11     2    10   ar
    12     1    11    1
    13     1    12    1
    14     1    13    1
    15     3    14    1
    16     8    15    1
