@<TRIPOS>MOLECULE
Cn1cnn2c(=O)nccc12
 17 18 0 0 0
SMALL
GASTEIGER
Energy = 0

@<TRIPOS>ATOM
      1 C           1.1510   -1.5257    0.0000 C.3     1  LIG1        0.0146
      2 N           0.8961   -0.7410    0.0000 N.ar    1  LIG1       -0.3183
      3 C           1.3810   -0.0736    0.0000 C.ar    1  LIG1        0.1183
      4 N           0.8961    0.5938    0.0000 N.ar    1  LIG1       -0.1510
      5 N           0.1114    0.3389    0.0000 N.ar    1  LIG1       -0.1623
      6 C          -0.6030    0.7514    0.0000 C.ar    1  LIG1        0.3705
      7 O          -0.6030    1.5764    0.0000 O.2     1  LIG1       -0.2425
      8 N          -1.3175    0.3389    0.0000 N.ar    1  LIG1       -0.1998
      9 C          -1.3175   -0.4861    0.0000 C.ar    1  LIG1        0.0365
     10 C          -0.6030   -0.8986    0.0000 C.ar    1  LIG1       -0.0007
     11 C           0.1114   -0.4861    0.0000 C.ar    1  LIG1        0.1426
     12 H           2.2906   -1.5556    0.0000 H       1  LIG1        0.0457
     13 H           0.7418   -2.0736   -0.9121 H       1  LIG1        0.0457
     14 H           0.7625   -2.0459    0.9370 H       1  LIG1        0.0457
     15 H           2.4825   -0.0736    0.0000 H       1  LIG1        0.1047
     16 H          -2.2714   -1.0369    0.0000 H       1  LIG1        0.0832
     17 H          -0.6030   -2.0001    0.0000 H       1  LIG1        0.0669
@<TRIPOS>BOND
     1     1     2    1
     2     2     3   ar
     3     3     4   ar
     4     4     5   ar
     5     5     6   ar
     6     6     7    2
     7     6     8   ar
     8     8     9   ar
     9     9    10   ar
    10    10    11   ar
    11     2    11   ar
    12     5    11   ar
    13     1    12    1
    14     1    13    1
    15     1    14    1
    16     3    15    1
    17     9    16    1
    18    10    17    1
