@<TRIPOS>MOLECULE
c1cnc2onnc2c1
 12 13 0 0 0
SMALL
GASTEIGER
Energy = 0

@<TRIPOS>ATOM
      1 O           0.8828   -0.6422    0.0000 O.2     1  LIG1       -0.3153
      2 N           1.3677    0.0252    0.0000 N.ar    1  LIG1        0.0363
      3 N           0.8828    0.6926    0.0000 N.ar    1  LIG1       -0.1092
      4 C           0.0981    0.4377    0.0000 C.ar    1  LIG1        0.1534
      5 C          -0.6163    0.8502    0.0000 C.ar    1  LIG1       -0.0277
      6 C          -1.3308    0.4377    0.0000 C.ar    1  LIG1       -0.0413
      7 C          -1.3308   -0.3873    0.0000 C.ar    1  LIG1        0.0316
      8 N          -0.6163   -0.7998    0.0000 N.ar    1  LIG1       -0.2171
      9 C           0.0981   -0.3873    0.0000 C.ar    1  LIG1        0.2787
     10 H          -0.6163    1.9517    0.0000 H       1  LIG1        0.0641
     11 H          -2.2847    0.9885    0.0000 H       1  LIG1        0.0633
     12 H          -2.2847   -0.9381    0.0000 H       1  LIG1        0.0831
@<TRIPOS>BOND
     1     1     2   ar
     2     2     3   ar
     3     3     4   ar
     4     4     5   ar
     5     5     6   ar
     6     6     7   ar
     7     7     8   ar
     8     8     9   ar
     9     1     9   ar
    10     4     9   ar
    11     5    10    1
    12     6    11    1
    13     7    12    1
