@<TRIPOS>MOLECULE
Cn1ccc2ncccc12
 18 19 0 0 0
SMALL
GASTEIGER
Energy = 0

@<TRIPOS>ATOM
      1 C           1.0780   -1.3141    0.0000 C.3     1  LIG1        0.0119
      2 N           0.8230   -0.5294    0.0000 N.ar    1  LIG1       -0.3485
      3 C           1.3079    0.1380    0.0000 C.ar    1  LIG1        0.0069
      4 C           0.8230    0.8054    0.0000 C.ar    1  LIG1       -0.0181
      5 C           0.0384    0.5505    0.0000 C.ar    1  LIG1        0.0886
      6 N          -0.6761    0.9630    0.0000 N.ar    1  LIG1       -0.2535
      7 C          -1.3905    0.5505    0.0000 C.ar    1  LIG1        0.0284
      8 C          -1.3905   -0.2745    0.0000 C.ar    1  LIG1       -0.0416
      9 C          -0.6761   -0.6870    0.0000 C.ar    1  LIG1       -0.0347
     10 C           0.0384   -0.2745    0.0000 C.ar    1  LIG1        0.0673
     11 H           2.2176   -1.3439    0.0000 H       1  LIG1        0.0456
     12 H           0.6689   -1.8620   -0.9121 H       1  LIG1        0.0456
     13 H           0.6895   -1.8344    0.9370 H       1  LIG1        0.0456
     14 H           2.4094    0.1380    0.0000 H       1  LIG1        0.0810
     15 H           1.1634    1.8530    0.0000 H       1  LIG1        0.0654
     16 H          -2.3444    1.1012    0.0000 H       1  LIG1        0.0830
     17 H          -2.3444   -0.8252    0.0000 H       1  LIG1        0.0633
     18 H          -0.6761   -1.7885    0.0000 H       1  LIG1        0.0639
@<TRIPOS>BOND
     1     1     2    1
     2     2     3   ar
     3     3     4   ar
     4     4     5   ar
     5     5     6   ar
     6     6     7   ar
     7     7     8   ar
     8     8     9   ar
     9     9    10   ar
    10     2    10   ar
    11     5    10   ar
    12     1    11    1
    13     1    12    1
    14     1    13    1
    15     3    14    1
    16     4    15    1
    17     7    16    1
    18     8    17    1
    19     9    18    1
