@<TRIPOS>MOLECULE
c1cc2ccccc2[nH]1
 16 17 0 0 0
SMALL
GASTEIGER
Energy = 0

@<TRIPOS>ATOM
      1 N           0.9284   -0.6553    0.0000 N.ar    1  LIG1       -0.3606
      2 C           1.4133    0.0121    0.0000 C.ar    1  LIG1        0.0027
      3 C           0.9284    0.6795    0.0000 C.ar    1  LIG1       -0.0367
      4 C           0.1438    0.4246    0.0000 C.ar    1  LIG1       -0.0004
      5 C          -0.5707    0.8371    0.0000 C.ar    1  LIG1       -0.0526
      6 C          -1.2852    0.4246    0.0000 C.ar    1  LIG1       -0.0611
      7 C          -1.2852   -0.4004    0.0000 C.ar    1  LIG1       -0.0598
      8 C          -0.5707   -0.8129    0.0000 C.ar    1  LIG1       -0.0378
      9 C           0.1438   -0.4004    0.0000 C.ar    1  LIG1        0.0465
     10 H           1.2629   -1.6848    0.0000 H       1  LIG1        0.1653
     11 H           2.5148    0.0121    0.0000 H       1  LIG1        0.0807
     12 H           1.2688    1.7271    0.0000 H       1  LIG1        0.0638
     13 H          -0.5707    1.9386    0.0000 H       1  LIG1        0.0624
     14 H          -2.2391    0.9754    0.0000 H       1  LIG1        0.0618
     15 H          -2.2391   -0.9512    0.0000 H       1  LIG1        0.0618
     16 H          -0.5707   -1.9144    0.0000 H       1  LIG1        0.0638
@<TRIPOS>BOND
     1     1     2   ar
     2     2     3   ar
     3     3     4   ar
     4     4     5   ar
     5     5     6   ar
     6     6     7   ar
     7     7     8   ar
     8     8     9   ar
     9     1     9   ar
    10     4     9   ar
    11     1    10    1
    12     2    11    1
    13     3    12    1
    14     5    13    1
    15     6    14    1
    16     7    15    1
    17     8    16    1
