@<TRIPOS>MOLECULE
c1n[nH]c2nnccc12
 13 14 0 0 0
SMALL
GASTEIGER
Energy = 0

@<TRIPOS>ATOM
      1 N           0.9360   -0.6347    0.0000 N.ar    1  LIG1       -0.2588
      2 N           1.4209    0.0328    0.0000 N.ar    1  LIG1       -0.1798
      3 C           0.9360    0.7002    0.0000 C.ar    1  LIG1        0.0586
      4 C           0.1514    0.4453    0.0000 C.ar    1  LIG1        0.0416
      5 C          -0.5631    0.8578    0.0000 C.ar    1  LIG1       -0.0296
      6 C          -1.2776    0.4453    0.0000 C.ar    1  LIG1        0.0507
      7 N          -1.2776   -0.3797    0.0000 N.ar    1  LIG1       -0.1556
      8 N          -0.5631   -0.7922    0.0000 N.ar    1  LIG1       -0.1296
      9 C           0.1514   -0.3797    0.0000 C.ar    1  LIG1        0.1778
     10 H           1.2705   -1.6642    0.0000 H       1  LIG1        0.1906
     11 H           1.2764    1.7478    0.0000 H       1  LIG1        0.0854
     12 H          -0.5631    1.9593    0.0000 H       1  LIG1        0.0641
     13 H          -2.2315    0.9961    0.0000 H       1  LIG1        0.0848
@<TRIPOS>BOND
     1     1     2   ar
     2     2     3   ar
     3     3     4   ar
     4     4     5   ar
     5     5     6   ar
     6     6     7   ar
     7     7     8   ar
     8     8     9   ar
     9     1     9   ar
    10     4     9   ar
    11     1    10    1
    12     3    11    1
    13     5    12    1
    14     6    13    1
