@<TRIPOS>MOLECULE
O=c1nc[nH]c2oncc12
 13 14 0 0 0
SMALL
GASTEIGER
Energy = 0

@<TRIPOS>ATOM
      1 O          -0.5098   -1.4791    0.0000 O.2     1  LIG1       -0.2650
      2 C          -0.5098   -0.6541    0.0000 C.ar    1  LIG1        0.2855
      3 N          -1.2243   -0.2416    0.0000 N.ar    1  LIG1       -0.1988
      4 C          -1.2243    0.5834    0.0000 C.ar    1  LIG1        0.0999
      5 N          -0.5098    0.9959    0.0000 N.ar    1  LIG1       -0.3142
      6 C           0.2046    0.5834    0.0000 C.ar    1  LIG1        0.2431
      7 C           0.2046   -0.2416    0.0000 C.ar    1  LIG1        0.1247
      8 C           0.9893   -0.4965    0.0000 C.ar    1  LIG1        0.0847
      9 N           1.4742    0.1709    0.0000 N.ar    1  LIG1       -0.0835
     10 O           0.9893    0.8383    0.0000 O.2     1  LIG1       -0.3362
     11 H          -2.1782    1.1342    0.0000 H       1  LIG1        0.1029
     12 H          -0.5098    2.0784    0.0000 H       1  LIG1        0.1697
     13 H           1.3297   -1.5441    0.0000 H       1  LIG1        0.0872
@<TRIPOS>BOND
     1     1     2    2
     2     2     3   ar
     3     3     4   ar
     4     4     5   ar
     5     5     6   ar
     6     6     7   ar
     7     2     7   ar
     8     7     8   ar
     9     8     9   ar
    10     9    10   ar
    11     6    10   ar
    12     4    11    1
    13     5    12    1
    14     8    13    1
