@<TRIPOS>MOLECULE
c1occ2nccnc12
 13 14 0 0 0
SMALL
GASTEIGER
Energy = 0

@<TRIPOS>ATOM
      1 O           1.4003    0.0000    0.0000 O.2     1  LIG1       -0.4667
      2 C           0.9154    0.6674    0.0000 C.ar    1  LIG1        0.1191
      3 C           0.1308    0.4125    0.0000 C.ar    1  LIG1        0.1268
      4 N          -0.5837    0.8250    0.0000 N.ar    1  LIG1       -0.2488
      5 C          -1.2982    0.4125    0.0000 C.ar    1  LIG1        0.0465
      6 C          -1.2982   -0.4125    0.0000 C.ar    1  LIG1        0.0465
      7 N          -0.5837   -0.8250    0.0000 N.ar    1  LIG1       -0.2488
      8 C           0.1308   -0.4125    0.0000 C.ar    1  LIG1        0.1268
      9 C           0.9154   -0.6674    0.0000 C.ar    1  LIG1        0.1191
     10 H           1.2558    1.7150    0.0000 H       1  LIG1        0.1052
     11 H          -2.2521    0.9633    0.0000 H       1  LIG1        0.0845
     12 H          -2.2521   -0.9633    0.0000 H       1  LIG1        0.0845
     13 H           1.2558   -1.7150    0.0000 H       1  LIG1        0.1052
@<TRIPOS>BOND
     1     1     2   ar
     2     2     3   ar
     3     3     4   ar
     4     4     5   ar
     5     5     6   ar
     6     6     7   ar
     7     7     8   ar
     8     3     8   ar
     9     8     9   ar
    10     1     9   ar
    11     2    10    1
    12     5    11    1
    13     6    12    1
    14     9    13    1
