@<TRIPOS>MOLECULE
O=c1cnnc[nH]1
 10 10 0 0 0
SMALL
GASTEIGER
Energy = 0

@<TRIPOS>ATOM
      1 O          -0.0000   -1.3868    0.0000 O.2     1  LIG1       -0.2662
      2 C          -0.0000   -0.5618    0.0000 C.ar    1  LIG1        0.2698
      3 N           0.7145   -0.1493    0.0000 N.ar    1  LIG1       -0.3108
      4 C           0.7145    0.6757    0.0000 C.ar    1  LIG1        0.1186
      5 N           0.0000    1.0882    0.0000 N.ar    1  LIG1       -0.1396
      6 N          -0.7145    0.6757    0.0000 N.ar    1  LIG1       -0.1509
      7 C          -0.7145   -0.1493    0.0000 C.ar    1  LIG1        0.1142
      8 H           1.6520   -0.6906    0.0000 H       1  LIG1        0.1699
      9 H           1.6684    1.2265    0.0000 H       1  LIG1        0.1046
     10 H          -1.6684   -0.7001    0.0000 H       1  LIG1        0.0904
@<TRIPOS>BOND
     1     1     2    2
     2     2     3   ar
     3     3     4   ar
     4     4     5   ar
     5     5     6   ar
     6     6     7   ar
     7     2     7   ar
     8     3     8    1
     9     4     9    1
    10     7    10    1
