@<TRIPOS>MOLECULE
c1nc2cc[nH]cc2n1
 14 15 0 0 0
SMALL
GASTEIGER
Energy = 0

@<TRIPOS>ATOM
      1 N           1.2789   -0.4053    0.0000 N.ar    1  LIG1       -0.3651
      2 C           1.2789    0.4197    0.0000 C.ar    1  LIG1        0.0037
      3 C           0.5645    0.8322    0.0000 C.ar    1  LIG1       -0.0182
      4 C          -0.1500    0.4197    0.0000 C.ar    1  LIG1        0.0937
      5 N          -0.9346    0.6747    0.0000 N.ar    1  LIG1       -0.2338
      6 C          -1.4195    0.0072    0.0000 C.ar    1  LIG1        0.1174
      7 N          -0.9346   -0.6602    0.0000 N.ar    1  LIG1       -0.2325
      8 C          -0.1500   -0.4053    0.0000 C.ar    1  LIG1        0.1068
      9 C           0.5645   -0.8178    0.0000 C.ar    1  LIG1        0.0294
     10 H           2.2164   -0.9465    0.0000 H       1  LIG1        0.1648
     11 H           2.2328    0.9704    0.0000 H       1  LIG1        0.0807
     12 H           0.5645    1.9337    0.0000 H       1  LIG1        0.0654
     13 H          -2.5210    0.0072    0.0000 H       1  LIG1        0.1047
     14 H           0.5645   -1.9193    0.0000 H       1  LIG1        0.0829
@<TRIPOS>BOND
     1     1     2   ar
     2     2     3   ar
     3     3     4   ar
     4     4     5   ar
     5     5     6   ar
     6     6     7   ar
     7     7     8   ar
     8     4     8   ar
     9     8     9   ar
    10     1     9   ar
    11     1    10    1
    12     2    11    1
    13     3    12    1
    14     6    13    1
    15     9    14    1
