@<TRIPOS>MOLECULE
Cn1ccc2cocc2c1=O
 18 19 0 0 0
SMALL
GASTEIGER
Energy = 0

@<TRIPOS>ATOM
      1 C           1.7749   -0.5637    0.0000 C.3     1  LIG1        0.0147
      2 N           1.0605   -0.1512    0.0000 N.ar    1  LIG1       -0.3177
      3 C           1.0605    0.6738    0.0000 C.ar    1  LIG1        0.0083
      4 C           0.3460    1.0863    0.0000 C.ar    1  LIG1       -0.0346
      5 C          -0.3685    0.6738    0.0000 C.ar    1  LIG1        0.0264
      6 C          -1.1531    0.9288    0.0000 C.ar    1  LIG1        0.0996
      7 O          -1.6380    0.2613    0.0000 O.2     1  LIG1       -0.4697
      8 C          -1.1531   -0.4061    0.0000 C.ar    1  LIG1        0.1046
      9 C          -0.3685   -0.1512    0.0000 C.ar    1  LIG1        0.0843
     10 C           0.3460   -0.5637    0.0000 C.ar    1  LIG1        0.2618
     11 O           0.3460   -1.3887    0.0000 O.2     1  LIG1       -0.2669
     12 H           2.6418    0.1766    0.0000 H       1  LIG1        0.0457
     13 H           1.8374   -1.2447   -0.9121 H       1  LIG1        0.0457
     14 H           1.8343   -1.2103    0.9370 H       1  LIG1        0.0457
     15 H           2.0144    1.2246    0.0000 H       1  LIG1        0.0810
     16 H           0.3460    2.1878    0.0000 H       1  LIG1        0.0639
     17 H          -1.4935    1.9764    0.0000 H       1  LIG1        0.1035
     18 H          -1.4935   -1.4537    0.0000 H       1  LIG1        0.1037
@<TRIPOS>BOND
     1     1     2    1
     2     2     3   ar
     3     3     4   ar
     4     4     5   ar
     5     5     6   ar
     6     6     7   ar
     7     7     8   ar
     8     8     9   ar
     9     5     9   ar
    10     9    10   ar
    11     2    10   ar
    12    10    11    2
    13     1    12    1
    14     1    13    1
    15     1    14    1
    16     3    15    1
    17     4    16    1
    18     6    17    1
    19     8    18    1
