@<TRIPOS>MOLECULE
Cn1nc2ccncn2c1=O
 17 18 0 0 0
SMALL
GASTEIGER
Energy = 0

@<TRIPOS>ATOM
      1 C           1.9166    0.1634    0.0000 C.3     1  LIG1        0.0355
      2 N           1.0916    0.1634    0.0000 N.ar    1  LIG1       -0.2154
      3 N           0.6066    0.8309    0.0000 N.ar    1  LIG1       -0.1489
      4 C          -0.1780    0.5759    0.0000 C.ar    1  LIG1        0.1643
      5 C          -0.8925    0.9884    0.0000 C.ar    1  LIG1        0.0012
      6 C          -1.6069    0.5759    0.0000 C.ar    1  LIG1        0.0328
      7 N          -1.6069   -0.2491    0.0000 N.ar    1  LIG1       -0.2449
      8 C          -0.8925   -0.6616    0.0000 C.ar    1  LIG1        0.1060
      9 N          -0.1780   -0.2491    0.0000 N.ar    1  LIG1       -0.2338
     10 C           0.6066   -0.5040    0.0000 C.ar    1  LIG1        0.3519
     11 O           0.8616   -1.2886    0.0000 O.2     1  LIG1       -0.2444
     12 H           2.2971    1.2380    0.0000 H       1  LIG1        0.0474
     13 H           2.3113   -0.3951   -0.9121 H       1  LIG1        0.0474
     14 H           2.2913   -0.3668    0.9370 H       1  LIG1        0.0474
     15 H          -0.8925    2.0899    0.0000 H       1  LIG1        0.0670
     16 H          -2.5608    1.1266    0.0000 H       1  LIG1        0.0831
     17 H          -0.8925   -1.7631    0.0000 H       1  LIG1        0.1034
@<TRIPOS>BOND
     1     1     2    1
     2     2     3   ar
     3     3     4   ar
     4     4     5   ar
     5     5     6   ar
     6     6     7   ar
     7     7     8   ar
     8     8     9   ar
     9     4     9   ar
    10     9    10   ar
    11     2    10   ar
    12    10    11    2
    13     1    12    1
    14     1    13    1
    15     1    14    1
    16     5    15    1
    17     6    16    1
    18     8    17    1
