@<TRIPOS>MOLECULE
Cn1nnc(=O)c2ccccc12
 19 20 0 0 0
SMALL
GASTEIGER
Energy = 0

@<TRIPOS>ATOM
      1 C           0.5383   -1.6820    0.0000 C.3     1  LIG1        0.0325
      2 N           0.5383   -0.8570    0.0000 N.ar    1  LIG1       -0.2483
      3 N           1.2528   -0.4445    0.0000 N.ar    1  LIG1       -0.0618
      4 N           1.2528    0.3805    0.0000 N.ar    1  LIG1       -0.0878
      5 C           0.5383    0.7930    0.0000 C.ar    1  LIG1        0.2990
      6 O           0.5383    1.6180    0.0000 O.2     1  LIG1       -0.2635
      7 C          -0.1761    0.3805    0.0000 C.ar    1  LIG1        0.0677
      8 C          -0.8906    0.7930    0.0000 C.ar    1  LIG1       -0.0473
      9 C          -1.6051    0.3805    0.0000 C.ar    1  LIG1       -0.0609
     10 C          -1.6051   -0.4445    0.0000 C.ar    1  LIG1       -0.0597
     11 C          -0.8906   -0.8570    0.0000 C.ar    1  LIG1       -0.0359
     12 C          -0.1761   -0.4445    0.0000 C.ar    1  LIG1        0.0740
     13 H           1.6129   -2.0625    0.0000 H       1  LIG1        0.0473
     14 H          -0.0202   -2.0767   -0.9121 H       1  LIG1        0.0473
     15 H           0.0081   -2.0567    0.9370 H       1  LIG1        0.0473
     16 H          -0.8906    1.8945    0.0000 H       1  LIG1        0.0626
     17 H          -2.5590    0.9313    0.0000 H       1  LIG1        0.0618
     18 H          -2.5590   -0.9953    0.0000 H       1  LIG1        0.0618
     19 H          -0.8906   -1.9585    0.0000 H       1  LIG1        0.0639
@<TRIPOS>BOND
     1     1     2    1
     2     2     3   ar
     3     3     4   ar
     4     4     5   ar
     5     5     6    2
     6     5     7   ar
     7     7     8   ar
     8     8     9   ar
     9     9    10   ar
    10    10    11   ar
    11    11    12   ar
    12     2    12   ar
    13     7    12   ar
    14     1    13    1
    15     1    14    1
    16     1    15    1
    17     8    16    1
    18     9    17    1
    19    10    18    1
    20    11    19    1
