@<TRIPOS>MOLECULE
Cn1ocnc1=O
 11 11 0 0 0
SMALL
GASTEIGER
Energy = 0

@<TRIPOS>ATOM
      1 C          -0.1730   -1.2533    0.0000 C.3     1  LIG1        0.0504
      2 N           0.0819   -0.4687    0.0000 N.ar    1  LIG1       -0.1564
      3 O           0.8665   -0.2138    0.0000 O.2     1  LIG1       -0.3615
      4 C           0.8665    0.6112    0.0000 C.ar    1  LIG1        0.2149
      5 N           0.0819    0.8662    0.0000 N.ar    1  LIG1       -0.1600
      6 C          -0.4030    0.1987    0.0000 C.ar    1  LIG1        0.3795
      7 O          -1.2280    0.1987    0.0000 O.2     1  LIG1       -0.2417
      8 H           0.7314   -1.9473    0.0000 H       1  LIG1        0.0488
      9 H          -0.8261   -1.4561   -0.9121 H       1  LIG1        0.0488
     10 H          -0.7931   -1.4459    0.9370 H       1  LIG1        0.0488
     11 H           1.7577    1.2586    0.0000 H       1  LIG1        0.1283
@<TRIPOS>BOND
     1     1     2    1
     2     2     3   ar
     3     3     4   ar
     4     4     5   ar
     5     5     6   ar
     6     2     6   ar
     7     6     7    2
     8     1     8    1
     9     1     9    1
    10     1    10    1
    11     4    11    1
