@<TRIPOS>MOLECULE
c1ccc2ncncc2c1
 16 17 0 0 0
SMALL
GASTEIGER
Energy = 0

@<TRIPOS>ATOM
      1 C           1.4634   -0.4191    0.0000 C.ar    1  LIG1       -0.0610
      2 C           1.4634    0.4059    0.0000 C.ar    1  LIG1       -0.0597
      3 C           0.7489    0.8184    0.0000 C.ar    1  LIG1       -0.0356
      4 C           0.0345    0.4059    0.0000 C.ar    1  LIG1        0.0742
      5 N          -0.6800    0.8184    0.0000 N.ar    1  LIG1       -0.2354
      6 C          -1.3945    0.4059    0.0000 C.ar    1  LIG1        0.1166
      7 N          -1.3945   -0.4191    0.0000 N.ar    1  LIG1       -0.2431
      8 C          -0.6800   -0.8316    0.0000 C.ar    1  LIG1        0.0385
      9 C           0.0345   -0.4191    0.0000 C.ar    1  LIG1        0.0185
     10 C           0.7489   -0.8316    0.0000 C.ar    1  LIG1       -0.0511
     11 H           2.4173   -0.9699    0.0000 H       1  LIG1        0.0618
     12 H           2.4173    0.9567    0.0000 H       1  LIG1        0.0618
     13 H           0.7489    1.9199    0.0000 H       1  LIG1        0.0639
     14 H          -2.3484    0.9567    0.0000 H       1  LIG1        0.1047
     15 H          -0.6800   -1.9331    0.0000 H       1  LIG1        0.0837
     16 H           0.7489   -1.9331    0.0000 H       1  LIG1        0.0625
@<TRIPOS>BOND
     1     1     2   ar
     2     2     3   ar
     3     3     4   ar
     4     4     5   ar
     5     5     6   ar
     6     6     7   ar
     7     7     8   ar
     8     8     9   ar
     9     4     9   ar
    10     9    10   ar
    11     1    10   ar
    12     1    11    1
    13     2    12    1
    14     3    13    1
    15     6    14    1
    16     8    15    1
    17    10    16    1
