@<TRIPOS>MOLECULE
c1ccoc1
 9 9 0 0 0
SMALL
GASTEIGER
Energy = 0

@<TRIPOS>ATOM
      1 O          -0.2034   -0.6259    0.0000 O.2     1  LIG1       -0.4710
      2 C           0.5813   -0.3709    0.0000 C.ar    1  LIG1        0.0917
      3 C           0.5813    0.4541    0.0000 C.ar    1  LIG1       -0.0239
      4 C          -0.2034    0.7090    0.0000 C.ar    1  LIG1       -0.0239
      5 C          -0.6883    0.0416    0.0000 C.ar    1  LIG1        0.0917
      6 H           1.4724   -1.0183    0.0000 H       1  LIG1        0.1029
      7 H           1.4724    1.1016    0.0000 H       1  LIG1        0.0649
      8 H          -0.5438    1.7566    0.0000 H       1  LIG1        0.0649
      9 H          -1.7898    0.0416    0.0000 H       1  LIG1        0.1029
@<TRIPOS>BOND
     1     1     2   ar
     2     2     3   ar
     3     3     4   ar
     4     4     5   ar
     5     1     5   ar
     6     2     6    1
     7     3     7    1
     8     4     8    1
     9     5     9    1
