@<TRIPOS>MOLECULE
O=c1ccn2ccoc2c1
 15 16 0 0 0
SMALL
GASTEIGER
Energy = 0

@<TRIPOS>ATOM
      1 O           1.7701   -0.7094    0.0000 O.2     1  LIG1       -0.2877
      2 C           1.0557   -0.2969    0.0000 C.ar    1  LIG1        0.1854
      3 C           1.0557    0.5281    0.0000 C.ar    1  LIG1        0.0018
      4 C           0.3412    0.9406    0.0000 C.ar    1  LIG1        0.0162
      5 N          -0.3733    0.5281    0.0000 N.ar    1  LIG1       -0.2911
      6 C          -1.1579    0.7830    0.0000 C.ar    1  LIG1        0.0474
      7 C          -1.6428    0.1156    0.0000 C.ar    1  LIG1        0.1108
      8 O          -1.1579   -0.5518    0.0000 O.2     1  LIG1       -0.4453
      9 C          -0.3733   -0.2969    0.0000 C.ar    1  LIG1        0.2084
     10 C           0.3412   -0.7094    0.0000 C.ar    1  LIG1        0.0457
     11 H           2.0096    1.0789    0.0000 H       1  LIG1        0.0670
     12 H           0.3412    2.0421    0.0000 H       1  LIG1        0.0815
     13 H          -1.4983    1.8306    0.0000 H       1  LIG1        0.0845
     14 H          -2.7443    0.1156    0.0000 H       1  LIG1        0.1045
     15 H           0.3412   -1.8109    0.0000 H       1  LIG1        0.0709
@<TRIPOS>BOND
     1     1     2    2
     2     2     3   ar
     3     3     4   ar
     4     4     5   ar
     5     5     6   ar
     6     6     7   ar
     7     7     8   ar
     8     8     9   ar
     9     5     9   ar
    10     9    10   ar
    11     2    10   ar
    12     3    11    1
    13     4    12    1
    14     6    13    1
    15     7    14    1
    16    10    15    1
