@<TRIPOS>MOLECULE
O=c1nc2cc[nH]c(=O)c2c[nH]1
 17 18 0 0 0
SMALL
GASTEIGER
Energy = 0

@<TRIPOS>ATOM
      1 O           1.9898   -0.9085    0.0000 O.2     1  LIG1       -0.2447
      2 C           1.2753   -0.4960    0.0000 C.ar    1  LIG1        0.3464
      3 N           1.2753    0.3290    0.0000 N.ar    1  LIG1       -0.3122
      4 C           0.5608    0.7415    0.0000 C.ar    1  LIG1        0.0208
      5 C          -0.1536    0.3290    0.0000 C.ar    1  LIG1        0.0808
      6 C          -0.8681    0.7415    0.0000 C.ar    1  LIG1        0.2593
      7 O          -0.8681    1.5665    0.0000 O.2     1  LIG1       -0.2671
      8 N          -1.5826    0.3290    0.0000 N.ar    1  LIG1       -0.3285
      9 C          -1.5826   -0.4960    0.0000 C.ar    1  LIG1        0.0070
     10 C          -0.8681   -0.9085    0.0000 C.ar    1  LIG1       -0.0193
     11 C          -0.1536   -0.4960    0.0000 C.ar    1  LIG1        0.0843
     12 N           0.5608   -0.9085    0.0000 N.ar    1  LIG1       -0.1929
     13 H           2.2128    0.8703    0.0000 H       1  LIG1        0.1699
     14 H           0.5608    1.8430    0.0000 H       1  LIG1        0.0817
     15 H          -2.5201    0.8703    0.0000 H       1  LIG1        0.1683
     16 H          -2.5365   -1.0468    0.0000 H       1  LIG1        0.0808
     17 H          -0.8681   -2.0100    0.0000 H       1  LIG1        0.0653
@<TRIPOS>BOND
     1     1     2    2
     2     2     3   ar
     3     3     4   ar
     4     4     5   ar
     5     5     6   ar
     6     6     7    2
     7     6     8   ar
     8     8     9   ar
     9     9    10   ar
    10    10    11   ar
    11     5    11   ar
    12    11    12   ar
    13     2    12   ar
    14     3    13    1
    15     4    14    1
    16     8    15    1
    17     9    16    1
    18    10    17    1
