@<TRIPOS>MOLECULE
Cn1nc2cc[nH]nc2c1=O
 17 18 0 0 0
SMALL
GASTEIGER
Energy = 0

@<TRIPOS>ATOM
      1 C           1.9265    0.1691    0.0000 C.3     1  LIG1        0.0340
      2 N           1.1015    0.1691    0.0000 N.ar    1  LIG1       -0.2302
      3 N           0.6165    0.8366    0.0000 N.ar    1  LIG1       -0.1666
      4 C          -0.1681    0.5816    0.0000 C.ar    1  LIG1        0.1180
      5 C          -0.8826    0.9941    0.0000 C.ar    1  LIG1       -0.0148
      6 C          -1.5970    0.5816    0.0000 C.ar    1  LIG1        0.0230
      7 N          -1.5970   -0.2434    0.0000 N.ar    1  LIG1       -0.2839
      8 N          -0.8826   -0.6559    0.0000 N.ar    1  LIG1       -0.1668
      9 C          -0.1681   -0.2434    0.0000 C.ar    1  LIG1        0.1764
     10 C           0.6165   -0.4983    0.0000 C.ar    1  LIG1        0.2963
     11 O           0.8715   -1.2829    0.0000 O.2     1  LIG1       -0.2638
     12 H           2.3070    1.2437    0.0000 H       1  LIG1        0.0474
     13 H           2.3212   -0.3894   -0.9121 H       1  LIG1        0.0474
     14 H           2.3012   -0.3611    0.9370 H       1  LIG1        0.0474
     15 H          -0.8826    2.0956    0.0000 H       1  LIG1        0.0655
     16 H          -2.5509    1.1323    0.0000 H       1  LIG1        0.0824
     17 H          -2.5345   -0.7846    0.0000 H       1  LIG1        0.1882
@<TRIPOS>BOND
     1     1     2    1
     2     2     3   ar
     3     3     4   ar
     4     4     5   ar
     5     5     6   ar
     6     6     7   ar
     7     7     8   ar
     8     8     9   ar
     9     4     9   ar
    10     9    10   ar
    11     2    10   ar
    12    10    11    2
    13     1    12    1
    14     1    13    1
    15     1    14    1
    16     5    15    1
    17     6    16    1
    18     7    17    1
