@<TRIPOS>MOLECULE
c1nc2cc[nH]nc2n1
 13 14 0 0 0
SMALL
GASTEIGER
Energy = 0

@<TRIPOS>ATOM
      1 N           1.2692   -0.3912    0.0000 N.ar    1  LIG1       -0.2827
      2 C           1.2692    0.4338    0.0000 C.ar    1  LIG1        0.0230
      3 C           0.5548    0.8463    0.0000 C.ar    1  LIG1       -0.0151
      4 C          -0.1597    0.4338    0.0000 C.ar    1  LIG1        0.1127
      5 N          -0.9443    0.6887    0.0000 N.ar    1  LIG1       -0.2322
      6 C          -1.4292    0.0213    0.0000 C.ar    1  LIG1        0.1192
      7 N          -0.9443   -0.6462    0.0000 N.ar    1  LIG1       -0.2132
      8 C          -0.1597   -0.3912    0.0000 C.ar    1  LIG1        0.1995
      9 N           0.5548   -0.8037    0.0000 N.ar    1  LIG1       -0.1522
     10 H           2.2067   -0.9324    0.0000 H       1  LIG1        0.1883
     11 H           2.2231    0.9845    0.0000 H       1  LIG1        0.0824
     12 H           0.5548    1.9478    0.0000 H       1  LIG1        0.0655
     13 H          -2.5307    0.0213    0.0000 H       1  LIG1        0.1048
@<TRIPOS>BOND
     1     1     2   ar
     2     2     3   ar
     3     3     4   ar
     4     4     5   ar
     5     5     6   ar
     6     6     7   ar
     7     7     8   ar
     8     4     8   ar
     9     8     9   ar
    10     1     9   ar
    11     1    10    1
    12     2    11    1
    13     3    12    1
    14     6    13    1
