@<TRIPOS>MOLECULE
O=c1ncn2ccoc2n1
 13 14 0 0 0
SMALL
GASTEIGER
Energy = 0

@<TRIPOS>ATOM
      1 O           1.7493   -0.7067    0.0000 O.2     1  LIG1       -0.2424
      2 C           1.0349   -0.2942    0.0000 C.ar    1  LIG1        0.3733
      3 N           1.0349    0.5308    0.0000 N.ar    1  LIG1       -0.1813
      4 C           0.3204    0.9433    0.0000 C.ar    1  LIG1        0.1095
      5 N          -0.3941    0.5308    0.0000 N.ar    1  LIG1       -0.2579
      6 C          -1.1787    0.7857    0.0000 C.ar    1  LIG1        0.0504
      7 C          -1.6636    0.1183    0.0000 C.ar    1  LIG1        0.1124
      8 O          -1.1787   -0.5491    0.0000 O.2     1  LIG1       -0.4308
      9 C          -0.3941   -0.2942    0.0000 C.ar    1  LIG1        0.3129
     10 N           0.3204   -0.7067    0.0000 N.ar    1  LIG1       -0.1387
     11 H           0.3204    2.0448    0.0000 H       1  LIG1        0.1035
     12 H          -1.5191    1.8333    0.0000 H       1  LIG1        0.0846
     13 H          -2.7651    0.1183    0.0000 H       1  LIG1        0.1046
@<TRIPOS>BOND
     1     1     2    2
     2     2     3   ar
     3     3     4   ar
     4     4     5   ar
     5     5     6   ar
     6     6     7   ar
     7     7     8   ar
     8     8     9   ar
     9     5     9   ar
    10     9    10   ar
    11     2    10   ar
    12     4    11    1
    13     6    12    1
    14     7    13    1
