@<TRIPOS>MOLECULE
c1nnc2nc[nH]cc12
 13 14 0 0 0
SMALL
GASTEIGER
Energy = 0

@<TRIPOS>ATOM
      1 N           1.2776   -0.4311    0.0000 N.ar    1  LIG1       -0.3515
      2 C           1.2776    0.3939    0.0000 C.ar    1  LIG1        0.0957
      3 N           0.5631    0.8064    0.0000 N.ar    1  LIG1       -0.2163
      4 C          -0.1514    0.3939    0.0000 C.ar    1  LIG1        0.1861
      5 N          -0.9360    0.6489    0.0000 N.ar    1  LIG1       -0.1290
      6 N          -1.4209   -0.0186    0.0000 N.ar    1  LIG1       -0.1549
      7 C          -0.9360   -0.6860    0.0000 C.ar    1  LIG1        0.0621
      8 C          -0.1514   -0.4311    0.0000 C.ar    1  LIG1        0.0566
      9 C           0.5631   -0.8436    0.0000 C.ar    1  LIG1        0.0152
     10 H           2.2151   -0.9724    0.0000 H       1  LIG1        0.1662
     11 H           2.2315    0.9447    0.0000 H       1  LIG1        0.1027
     12 H          -1.2764   -1.7336    0.0000 H       1  LIG1        0.0856
     13 H           0.5631   -1.9451    0.0000 H       1  LIG1        0.0815
@<TRIPOS>BOND
     1     1     2   ar
     2     2     3   ar
     3     3     4   ar
     4     4     5   ar
     5     5     6   ar
     6     6     7   ar
     7     7     8   ar
     8     4     8   ar
     9     8     9   ar
    10     1     9   ar
    11     1    10    1
    12     2    11    1
    13     7    12    1
    14     9    13    1
