@<TRIPOS>MOLECULE
O=c1ncc2ccccc2[nH]1
 17 18 0 0 0
SMALL
GASTEIGER
Energy = 0

@<TRIPOS>ATOM
      1 O           1.8681    0.7249    0.0000 O.2     1  LIG1       -0.2447
      2 C           1.1536    0.3124    0.0000 C.ar    1  LIG1        0.3463
      3 N           0.4392    0.7249    0.0000 N.ar    1  LIG1       -0.3058
      4 C          -0.2753    0.3124    0.0000 C.ar    1  LIG1        0.0519
      5 C          -0.9898    0.7249    0.0000 C.ar    1  LIG1       -0.0376
      6 C          -1.7043    0.3124    0.0000 C.ar    1  LIG1       -0.0598
      7 C          -1.7043   -0.5126    0.0000 C.ar    1  LIG1       -0.0610
      8 C          -0.9898   -0.9251    0.0000 C.ar    1  LIG1       -0.0512
      9 C          -0.2753   -0.5126    0.0000 C.ar    1  LIG1        0.0166
     10 C           0.4392   -0.9251    0.0000 C.ar    1  LIG1        0.0421
     11 N           1.1536   -0.5126    0.0000 N.ar    1  LIG1       -0.2009
     12 H           0.4392    1.8074    0.0000 H       1  LIG1        0.1705
     13 H          -0.9898    1.8264    0.0000 H       1  LIG1        0.0638
     14 H          -2.6582    0.8632    0.0000 H       1  LIG1        0.0618
     15 H          -2.6582   -1.0634    0.0000 H       1  LIG1        0.0618
     16 H          -0.9898   -2.0266    0.0000 H       1  LIG1        0.0625
     17 H           0.4392   -2.0266    0.0000 H       1  LIG1        0.0838
@<TRIPOS>BOND
     1     1     2    2
     2     2     3   ar
     3     3     4   ar
     4     4     5   ar
     5     5     6   ar
     6     6     7   ar
     7     7     8   ar
     8     8     9   ar
     9     4     9   ar
    10     9    10   ar
    11    10    11   ar
    12     2    11   ar
    13     3    12    1
    14     5    13    1
    15     6    14    1
    16     7    15    1
    17     8    16    1
    18    10    17    1
