@<TRIPOS>MOLECULE
Cn1ncn2cncc12
 15 16 0 0 0
SMALL
GASTEIGER
Energy = 0

@<TRIPOS>ATOM
      1 C           0.9185   -1.2974    0.0000 C.3     1  LIG1        0.0325
      2 N           0.6636   -0.5128    0.0000 N.ar    1  LIG1       -0.2485
      3 N           1.1485    0.1546    0.0000 N.ar    1  LIG1       -0.1596
      4 C           0.6636    0.8221    0.0000 C.ar    1  LIG1        0.1233
      5 N          -0.1211    0.5671    0.0000 N.ar    1  LIG1       -0.2726
      6 C          -0.9057    0.8221    0.0000 C.ar    1  LIG1        0.1028
      7 N          -1.3906    0.1546    0.0000 N.ar    1  LIG1       -0.2415
      8 C          -0.9057   -0.5128    0.0000 C.ar    1  LIG1        0.0718
      9 C          -0.1211   -0.2579    0.0000 C.ar    1  LIG1        0.1548
     10 H           2.0581   -1.3273    0.0000 H       1  LIG1        0.0473
     11 H           0.5093   -1.8453   -0.9121 H       1  LIG1        0.0473
     12 H           0.5300   -1.8176    0.9370 H       1  LIG1        0.0473
     13 H           1.0040    1.8697    0.0000 H       1  LIG1        0.1051
     14 H          -1.2461    1.8697    0.0000 H       1  LIG1        0.1033
     15 H          -1.2461   -1.5604    0.0000 H       1  LIG1        0.0867
@<TRIPOS>BOND
     1     1     2    1
     2     2     3   ar
     3     3     4   ar
     4     4     5   ar
     5     5     6   ar
     6     6     7   ar
     7     7     8   ar
     8     8     9   ar
     9     2     9   ar
    10     5     9   ar
    11     1    10    1
    12     1    11    1
    13     1    12    1
    14     4    13    1
    15     6    14    1
    16     8    15    1
