@<TRIPOS>MOLECULE
O=c1cn[nH]c(=O)[nH]1
 11 11 0 0 0
SMALL
GASTEIGER
Energy = 0

@<TRIPOS>ATOM
      1 O           0.1948   -1.5226    0.0000 O.2     1  LIG1       -0.2452
      2 C           0.1948   -0.6976    0.0000 C.ar    1  LIG1        0.3429
      3 N           0.9093   -0.2851    0.0000 N.ar    1  LIG1       -0.2282
      4 N           0.9093    0.5399    0.0000 N.ar    1  LIG1       -0.1728
      5 C           0.1948    0.9524    0.0000 C.ar    1  LIG1        0.1122
      6 C          -0.5197    0.5399    0.0000 C.ar    1  LIG1        0.2724
      7 O          -1.2342    0.9524    0.0000 O.2     1  LIG1       -0.2661
      8 N          -0.5197   -0.2851    0.0000 N.ar    1  LIG1       -0.2727
      9 H           1.8468   -0.8264    0.0000 H       1  LIG1        0.1936
     10 H           0.1948    2.0539    0.0000 H       1  LIG1        0.0903
     11 H          -1.4572   -0.8264    0.0000 H       1  LIG1        0.1735
@<TRIPOS>BOND
     1     1     2    2
     2     2     3   ar
     3     3     4   ar
     4     4     5   ar
     5     5     6   ar
     6     6     7    2
     7     6     8   ar
     8     2     8   ar
     9     3     9    1
    10     5    10    1
    11     8    11    1
