@<TRIPOS>MOLECULE
c1ncc2cncnc2n1
 14 15 0 0 0
SMALL
GASTEIGER
Energy = 0

@<TRIPOS>ATOM
      1 C           1.4289   -0.3996    0.0000 C.ar    1  LIG1        0.1183
      2 N           1.4289    0.4254    0.0000 N.ar    1  LIG1       -0.2429
      3 C           0.7145    0.8379    0.0000 C.ar    1  LIG1        0.0415
      4 C           0.0000    0.4254    0.0000 C.ar    1  LIG1        0.0554
      5 C          -0.7145    0.8379    0.0000 C.ar    1  LIG1        0.0415
      6 N          -1.4289    0.4254    0.0000 N.ar    1  LIG1       -0.2429
      7 C          -1.4289   -0.3996    0.0000 C.ar    1  LIG1        0.1183
      8 N          -0.7145   -0.8121    0.0000 N.ar    1  LIG1       -0.2160
      9 C           0.0000   -0.3996    0.0000 C.ar    1  LIG1        0.1659
     10 N           0.7145   -0.8121    0.0000 N.ar    1  LIG1       -0.2160
     11 H           2.3828   -0.9503    0.0000 H       1  LIG1        0.1047
     12 H           0.7145    1.9394    0.0000 H       1  LIG1        0.0838
     13 H          -0.7145    1.9394    0.0000 H       1  LIG1        0.0838
     14 H          -2.3828   -0.9503    0.0000 H       1  LIG1        0.1047
@<TRIPOS>BOND
     1     1     2   ar
     2     2     3   ar
     3     3     4   ar
     4     4     5   ar
     5     5     6   ar
     6     6     7   ar
     7     7     8   ar
     8     8     9   ar
     9     4     9   ar
    10     9    10   ar
    11     1    10   ar
    12     1    11    1
    13     3    12    1
    14     5    13    1
    15     7    14    1
