@<TRIPOS>MOLECULE
Cn1cnc2ncccc12
 17 18 0 0 0
SMALL
GASTEIGER
Energy = 0

@<TRIPOS>ATOM
      1 C           1.0649   -1.3268    0.0000 C.3     1  LIG1        0.0133
      2 N           0.8100   -0.5422    0.0000 N.ar    1  LIG1       -0.3319
      3 C           1.2949    0.1253    0.0000 C.ar    1  LIG1        0.0986
      4 N           0.8100    0.7927    0.0000 N.ar    1  LIG1       -0.2164
      5 C           0.0254    0.5378    0.0000 C.ar    1  LIG1        0.1779
      6 N          -0.6891    0.9503    0.0000 N.ar    1  LIG1       -0.2344
      7 C          -1.4036    0.5378    0.0000 C.ar    1  LIG1        0.0301
      8 C          -1.4036   -0.2872    0.0000 C.ar    1  LIG1       -0.0415
      9 C          -0.6891   -0.6997    0.0000 C.ar    1  LIG1       -0.0331
     10 C           0.0254   -0.2872    0.0000 C.ar    1  LIG1        0.0874
     11 H           2.2045   -1.3567    0.0000 H       1  LIG1        0.0456
     12 H           0.6557   -1.8747   -0.9121 H       1  LIG1        0.0456
     13 H           0.6764   -1.8470    0.9370 H       1  LIG1        0.0456
     14 H           2.3964    0.1253    0.0000 H       1  LIG1        0.1029
     15 H          -2.3575    1.0886    0.0000 H       1  LIG1        0.0830
     16 H          -2.3575   -0.8380    0.0000 H       1  LIG1        0.0633
     17 H          -0.6891   -1.8012    0.0000 H       1  LIG1        0.0640
@<TRIPOS>BOND
     1     1     2    1
     2     2     3   ar
     3     3     4   ar
     4     4     5   ar
     5     5     6   ar
     6     6     7   ar
     7     7     8   ar
     8     8     9   ar
     9     9    10   ar
    10     2    10   ar
    11     5    10   ar
    12     1    11    1
    13     1    12    1
    14     1    13    1
    15     3    14    1
    16     7    15    1
    17     8    16    1
    18     9    17    1
