@<TRIPOS>MOLECULE
O=c1ncn2cc[nH]cc12
 15 16 0 0 0
SMALL
GASTEIGER
Energy = 0

@<TRIPOS>ATOM
      1 O           1.0478   -1.2735    0.0000 O.2     1  LIG1       -0.2635
      2 C           0.7929   -0.4888    0.0000 C.ar    1  LIG1        0.2969
      3 N           1.2778    0.1786    0.0000 N.ar    1  LIG1       -0.1973
      4 C           0.7929    0.8460    0.0000 C.ar    1  LIG1        0.1046
      5 N           0.0083    0.5911    0.0000 N.ar    1  LIG1       -0.2999
      6 C          -0.7062    1.0036    0.0000 C.ar    1  LIG1        0.0273
      7 C          -1.4207    0.5911    0.0000 C.ar    1  LIG1        0.0184
      8 N          -1.4207   -0.2339    0.0000 N.ar    1  LIG1       -0.3640
      9 C          -0.7062   -0.6464    0.0000 C.ar    1  LIG1        0.0312
     10 C           0.0083   -0.2339    0.0000 C.ar    1  LIG1        0.1302
     11 H           1.1333    1.8936    0.0000 H       1  LIG1        0.1033
     12 H          -0.7062    2.1051    0.0000 H       1  LIG1        0.0828
     13 H          -2.3746    1.1419    0.0000 H       1  LIG1        0.0822
     14 H          -2.3582   -0.7752    0.0000 H       1  LIG1        0.1649
     15 H          -0.7062   -1.7479    0.0000 H       1  LIG1        0.0830
@<TRIPOS>BOND
     1     1     2    2
     2     2     3   ar
     3     3     4   ar
     4     4     5   ar
     5     5     6   ar
     6     6     7   ar
     7     7     8   ar
     8     8     9   ar
     9     9    10   ar
    10     2    10   ar
    11     5    10   ar
    12     4    11    1
    13     6    12    1
    14     7    13    1
    15     8    14    1
    16     9    15    1
