@<TRIPOS>MOLECULE
O=c1nc[nH]c2ncoc12
 13 14 0 0 0
SMALL
GASTEIGER
Energy = 0

@<TRIPOS>ATOM
      1 O          -0.5026   -1.4493    0.0000 O.2     1  LIG1       -0.2617
      2 C          -0.5026   -0.6243    0.0000 C.ar    1  LIG1        0.3177
      3 N          -1.2171   -0.2118    0.0000 N.ar    1  LIG1       -0.1963
      4 C          -1.2171    0.6132    0.0000 C.ar    1  LIG1        0.0989
      5 N          -0.5026    1.0257    0.0000 N.ar    1  LIG1       -0.3277
      6 C           0.2119    0.6132    0.0000 C.ar    1  LIG1        0.1835
      7 C           0.2119   -0.2118    0.0000 C.ar    1  LIG1        0.2376
      8 O           0.9965   -0.4668    0.0000 O.2     1  LIG1       -0.4353
      9 C           1.4814    0.2007    0.0000 C.ar    1  LIG1        0.1848
     10 N           0.9965    0.8681    0.0000 N.ar    1  LIG1       -0.1981
     11 H          -2.1710    1.1640    0.0000 H       1  LIG1        0.1028
     12 H          -0.5026    2.1082    0.0000 H       1  LIG1        0.1683
     13 H           2.5829    0.2007    0.0000 H       1  LIG1        0.1255
@<TRIPOS>BOND
     1     1     2    2
     2     2     3   ar
     3     3     4   ar
     4     4     5   ar
     5     5     6   ar
     6     6     7   ar
     7     2     7   ar
     8     7     8   ar
     9     8     9   ar
    10     9    10   ar
    11     6    10   ar
    12     4    11    1
    13     5    12    1
    14     9    13    1
