@<TRIPOS>MOLECULE
O=c1cc[nH]c2[nH]ccc12
 16 17 0 0 0
SMALL
GASTEIGER
Energy = 0

@<TRIPOS>ATOM
      1 O          -0.4905   -1.4672    0.0000 O.2     1  LIG1       -0.2871
      2 C          -0.4905   -0.6422    0.0000 C.ar    1  LIG1        0.1909
      3 C          -1.2050   -0.2297    0.0000 C.ar    1  LIG1        0.0018
      4 C          -1.2050    0.5953    0.0000 C.ar    1  LIG1        0.0070
      5 N          -0.4905    1.0078    0.0000 N.ar    1  LIG1       -0.3471
      6 C           0.2239    0.5953    0.0000 C.ar    1  LIG1        0.1196
      7 C           0.2239   -0.2297    0.0000 C.ar    1  LIG1        0.0634
      8 C           1.0086   -0.4846    0.0000 C.ar    1  LIG1       -0.0315
      9 C           1.4935    0.1828    0.0000 C.ar    1  LIG1        0.0042
     10 N           1.0086    0.8503    0.0000 N.ar    1  LIG1       -0.3472
     11 H          -2.1589   -0.7805    0.0000 H       1  LIG1        0.0670
     12 H          -2.1589    1.1461    0.0000 H       1  LIG1        0.0808
     13 H          -0.4905    2.0903    0.0000 H       1  LIG1        0.1667
     14 H           1.3490   -1.5322    0.0000 H       1  LIG1        0.0640
     15 H           2.5950    0.1828    0.0000 H       1  LIG1        0.0807
     16 H           1.3431    1.8798    0.0000 H       1  LIG1        0.1667
@<TRIPOS>BOND
     1     1     2    2
     2     2     3   ar
     3     3     4   ar
     4     4     5   ar
     5     5     6   ar
     6     6     7   ar
     7     2     7   ar
     8     7     8   ar
     9     8     9   ar
    10     9    10   ar
    11     6    10   ar
    12     3    11    1
    13     4    12    1
    14     5    13    1
    15     8    14    1
    16     9    15    1
    17    10    16    1
