@<TRIPOS>MOLECULE
c1cc2ncccc2o1
 14 15 0 0 0
SMALL
GASTEIGER
Energy = 0

@<TRIPOS>ATOM
      1 O           0.9221   -0.6585    0.0000 O.2     1  LIG1       -0.4613
      2 C           1.4071    0.0089    0.0000 C.ar    1  LIG1        0.0947
      3 C           0.9221    0.6763    0.0000 C.ar    1  LIG1        0.0022
      4 C           0.1375    0.4214    0.0000 C.ar    1  LIG1        0.1088
      5 N          -0.5770    0.8339    0.0000 N.ar    1  LIG1       -0.2518
      6 C          -1.2914    0.4214    0.0000 C.ar    1  LIG1        0.0285
      7 C          -1.2914   -0.4036    0.0000 C.ar    1  LIG1       -0.0401
      8 C          -0.5770   -0.8161    0.0000 C.ar    1  LIG1       -0.0158
      9 C           0.1375   -0.4036    0.0000 C.ar    1  LIG1        0.1529
     10 H           2.5086    0.0089    0.0000 H       1  LIG1        0.1030
     11 H           1.2624    1.7239    0.0000 H       1  LIG1        0.0670
     12 H          -2.2453    0.9721    0.0000 H       1  LIG1        0.0830
     13 H          -2.2453   -0.9543    0.0000 H       1  LIG1        0.0634
     14 H          -0.5770   -1.9176    0.0000 H       1  LIG1        0.0655
@<TRIPOS>BOND
     1     1     2   ar
     2     2     3   ar
     3     3     4   ar
     4     4     5   ar
     5     5     6   ar
     6     6     7   ar
     7     7     8   ar
     8     8     9   ar
     9     1     9   ar
    10     4     9   ar
    11     2    10    1
    12     3    11    1
    13     6    12    1
    14     7    13    1
    15     8    14    1
