@<TRIPOS>MOLECULE
Cn1c(=O)ccc2n[nH]c(=O)n12
 18 19 0 0 0
SMALL
GASTEIGER
Energy = 0

@<TRIPOS>ATOM
      1 C           0.4586    1.2915    0.0000 C.3     1  LIG1        0.0326
      2 N           0.4586    0.4665    0.0000 N.ar    1  LIG1       -0.2429
      3 N          -0.2559    0.0540    0.0000 N.ar    1  LIG1       -0.1786
      4 C          -1.0405    0.3090    0.0000 C.ar    1  LIG1        0.3636
      5 O          -1.2954    1.0936    0.0000 O.2     1  LIG1       -0.2431
      6 N          -1.5254   -0.3585    0.0000 N.ar    1  LIG1       -0.2248
      7 N          -1.0405   -1.0259    0.0000 N.ar    1  LIG1       -0.1501
      8 C          -0.2559   -0.7710    0.0000 C.ar    1  LIG1        0.1774
      9 C           0.4586   -1.1835    0.0000 C.ar    1  LIG1       -0.0105
     10 C           1.1731   -0.7710    0.0000 C.ar    1  LIG1        0.0079
     11 C           1.1731    0.0540    0.0000 C.ar    1  LIG1        0.2660
     12 O           1.8876    0.4665    0.0000 O.2     1  LIG1       -0.2663
     13 H          -0.6160    1.6720    0.0000 H       1  LIG1        0.0473
     14 H           1.0171    1.6862   -0.9121 H       1  LIG1        0.0473
     15 H           0.9888    1.6662    0.9370 H       1  LIG1        0.0473
     16 H          -2.6079   -0.3585    0.0000 H       1  LIG1        0.1937
     17 H           0.4586   -2.2850    0.0000 H       1  LIG1        0.0657
     18 H           2.1270   -1.3218    0.0000 H       1  LIG1        0.0673
@<TRIPOS>BOND
     1     1     2    1
     2     2     3   ar
     3     3     4   ar
     4     4     5    2
     5     4     6   ar
     6     6     7   ar
     7     7     8   ar
     8     3     8   ar
     9     8     9   ar
    10     9    10   ar
    11    10    11   ar
    12     2    11   ar
    13    11    12    2
    14     1    13    1
    15     1    14    1
    16     1    15    1
    17     6    16    1
    18     9    17    1
    19    10    18    1
