@<TRIPOS>MOLECULE
O=c1ncc2scnc2[nH]1
 13 14 0 0 0
SMALL
GASTEIGER
Energy = 0

@<TRIPOS>ATOM
      1 O          -1.8859    0.8119    0.0000 O.2     1  LIG1       -0.2447
      2 C          -1.1714    0.3994    0.0000 C.ar    1  LIG1        0.3474
      3 N          -0.4570    0.8119    0.0000 N.ar    1  LIG1       -0.2901
      4 C           0.2575    0.3994    0.0000 C.ar    1  LIG1        0.1506
      5 C           0.2575   -0.4256    0.0000 C.ar    1  LIG1        0.0741
      6 S           1.0421   -0.6806    0.0000 S.2     1  LIG1       -0.0723
      7 C           1.5270   -0.0131    0.0000 C.ar    1  LIG1        0.0677
      8 N           1.0421    0.6543    0.0000 N.ar    1  LIG1       -0.2297
      9 C          -0.4570   -0.8381    0.0000 C.ar    1  LIG1        0.0503
     10 N          -1.1714   -0.4256    0.0000 N.ar    1  LIG1       -0.2003
     11 H          -0.4570    1.8944    0.0000 H       1  LIG1        0.1719
     12 H           2.6285   -0.0131    0.0000 H       1  LIG1        0.0908
     13 H          -0.4570   -1.9396    0.0000 H       1  LIG1        0.0844
@<TRIPOS>BOND
     1     1     2    2
     2     2     3   ar
     3     3     4   ar
     4     4     5   ar
     5     5     6   ar
     6     6     7   ar
     7     7     8   ar
     8     4     8   ar
     9     5     9   ar
    10     9    10   ar
    11     2    10   ar
    12     3    11    1
    13     7    12    1
    14     9    13    1
