@<TRIPOS>MOLECULE
Cn1ccn2cccc2c1=O
 19 20 0 0 0
SMALL
GASTEIGER
Energy = 0

@<TRIPOS>ATOM
      1 C           1.7336   -0.5658    0.0000 C.3     1  LIG1        0.0148
      2 N           1.0191   -0.1533    0.0000 N.ar    1  LIG1       -0.3152
      3 C           1.0191    0.6717    0.0000 C.ar    1  LIG1        0.0241
      4 C           0.3046    1.0842    0.0000 C.ar    1  LIG1        0.0261
      5 N          -0.4098    0.6717    0.0000 N.ar    1  LIG1       -0.3173
      6 C          -1.1945    0.9266    0.0000 C.ar    1  LIG1        0.0100
      7 C          -1.6794    0.2592    0.0000 C.ar    1  LIG1       -0.0431
      8 C          -1.1945   -0.4083    0.0000 C.ar    1  LIG1       -0.0312
      9 C          -0.4098   -0.1533    0.0000 C.ar    1  LIG1        0.1112
     10 C           0.3046   -0.5658    0.0000 C.ar    1  LIG1        0.2750
     11 O           0.3046   -1.3908    0.0000 O.2     1  LIG1       -0.2654
     12 H           2.6004    0.1746    0.0000 H       1  LIG1        0.0457
     13 H           1.7962   -1.2468   -0.9121 H       1  LIG1        0.0457
     14 H           1.7930   -1.2124    0.9370 H       1  LIG1        0.0457
     15 H           1.9730    1.2225    0.0000 H       1  LIG1        0.0825
     16 H           0.3046    2.1857    0.0000 H       1  LIG1        0.0827
     17 H          -1.5349    1.9742    0.0000 H       1  LIG1        0.0813
     18 H          -2.7809    0.2592    0.0000 H       1  LIG1        0.0633
     19 H          -1.5349   -1.4559    0.0000 H       1  LIG1        0.0640
@<TRIPOS>BOND
     1     1     2    1
     2     2     3   ar
     3     3     4   ar
     4     4     5   ar
     5     5     6   ar
     6     6     7   ar
     7     7     8   ar
     8     8     9   ar
     9     5     9   ar
    10     9    10   ar
    11     2    10   ar
    12    10    11    2
    13     1    12    1
    14     1    13    1
    15     1    14    1
    16     3    15    1
    17     4    16    1
    18     6    17    1
    19     7    18    1
    20     8    19    1
