@<TRIPOS>MOLECULE
c1cc2cnncn2n1
 13 14 0 0 0
SMALL
GASTEIGER
Energy = 0

@<TRIPOS>ATOM
      1 C           1.4550   -0.0186    0.0000 C.ar    1  LIG1        0.0505
      2 N           0.9701    0.6489    0.0000 N.ar    1  LIG1       -0.1733
      3 N           0.1855    0.3939    0.0000 N.ar    1  LIG1       -0.2184
      4 C          -0.5290    0.8064    0.0000 C.ar    1  LIG1        0.1403
      5 N          -1.2435    0.3939    0.0000 N.ar    1  LIG1       -0.1377
      6 N          -1.2435   -0.4311    0.0000 N.ar    1  LIG1       -0.1541
      7 C          -0.5290   -0.8436    0.0000 C.ar    1  LIG1        0.0754
      8 C           0.1855   -0.4311    0.0000 C.ar    1  LIG1        0.0883
      9 C           0.9701   -0.6860    0.0000 C.ar    1  LIG1       -0.0149
     10 H           2.5565   -0.0186    0.0000 H       1  LIG1        0.0848
     11 H          -0.5290    1.9079    0.0000 H       1  LIG1        0.1066
     12 H          -0.5290   -1.9451    0.0000 H       1  LIG1        0.0870
     13 H           1.3105   -1.7336    0.0000 H       1  LIG1        0.0655
@<TRIPOS>BOND
     1     1     2   ar
     2     2     3   ar
     3     3     4   ar
     4     4     5   ar
     5     5     6   ar
     6     6     7   ar
     7     7     8   ar
     8     3     8   ar
     9     8     9   ar
    10     1     9   ar
    11     1    10    1
    12     4    11    1
    13     7    12    1
    14     9    13    1
