@<TRIPOS>MOLECULE
Cn1cnc2ccnn2c1=O
 17 18 0 0 0
SMALL
GASTEIGER
Energy = 0

@<TRIPOS>ATOM
      1 C           1.7459   -0.5638    0.0000 C.3     1  LIG1        0.0176
      2 N           1.0314   -0.1513    0.0000 N.ar    1  LIG1       -0.2859
      3 C           1.0314    0.6737    0.0000 C.ar    1  LIG1        0.1018
      4 N           0.3169    1.0862    0.0000 N.ar    1  LIG1       -0.2181
      5 C          -0.3975    0.6737    0.0000 C.ar    1  LIG1        0.1623
      6 C          -1.1821    0.9287    0.0000 C.ar    1  LIG1        0.0025
      7 C          -1.6671    0.2612    0.0000 C.ar    1  LIG1        0.0521
      8 N          -1.1821   -0.4062    0.0000 N.ar    1  LIG1       -0.1690
      9 N          -0.3975   -0.1513    0.0000 N.ar    1  LIG1       -0.1634
     10 C           0.3169   -0.5638    0.0000 C.ar    1  LIG1        0.3522
     11 O           0.3169   -1.3888    0.0000 O.2     1  LIG1       -0.2444
     12 H           2.6127    0.1766    0.0000 H       1  LIG1        0.0457
     13 H           1.8085   -1.2448   -0.9121 H       1  LIG1        0.0457
     14 H           1.8053   -1.2104    0.9370 H       1  LIG1        0.0457
     15 H           1.9853    1.2245    0.0000 H       1  LIG1        0.1031
     16 H          -1.5224    1.9763    0.0000 H       1  LIG1        0.0670
     17 H          -2.7686    0.2612    0.0000 H       1  LIG1        0.0848
@<TRIPOS>BOND
     1     1     2    1
     2     2     3   ar
     3     3     4   ar
     4     4     5   ar
     5     5     6   ar
     6     6     7   ar
     7     7     8   ar
     8     8     9   ar
     9     5     9   ar
    10     9    10   ar
    11     2    10   ar
    12    10    11    2
    13     1    12    1
    14     1    13    1
    15     1    14    1
    16     3    15    1
    17     6    16    1
    18     7    17    1
