@<TRIPOS>MOLECULE
Cn1ccc(=O)c2nccnc12
 19 20 0 0 0
SMALL
GASTEIGER
Energy = 0

@<TRIPOS>ATOM
      1 C           0.5939   -1.6820    0.0000 C.3     1  LIG1        0.0133
      2 N           0.5939   -0.8570    0.0000 N.ar    1  LIG1       -0.3335
      3 C           1.3083   -0.4445    0.0000 C.ar    1  LIG1        0.0099
      4 C           1.3083    0.3805    0.0000 C.ar    1  LIG1        0.0035
      5 C           0.5939    0.7930    0.0000 C.ar    1  LIG1        0.2091
      6 O           0.5939    1.6180    0.0000 O.2     1  LIG1       -0.2855
      7 C          -0.1206    0.3805    0.0000 C.ar    1  LIG1        0.1526
      8 N          -0.8351    0.7930    0.0000 N.ar    1  LIG1       -0.2466
      9 C          -1.5495    0.3805    0.0000 C.ar    1  LIG1        0.0466
     10 C          -1.5495   -0.4445    0.0000 C.ar    1  LIG1        0.0480
     11 N          -0.8351   -0.8570    0.0000 N.ar    1  LIG1       -0.2342
     12 C          -0.1206   -0.4445    0.0000 C.ar    1  LIG1        0.1627
     13 H           1.6685   -2.0625    0.0000 H       1  LIG1        0.0456
     14 H           0.0354   -2.0767   -0.9121 H       1  LIG1        0.0456
     15 H           0.0637   -2.0567    0.9370 H       1  LIG1        0.0456
     16 H           2.2622   -0.9952    0.0000 H       1  LIG1        0.0810
     17 H           2.2622    0.9312    0.0000 H       1  LIG1        0.0671
     18 H          -2.5034    0.9312    0.0000 H       1  LIG1        0.0845
     19 H          -2.5034   -0.9952    0.0000 H       1  LIG1        0.0846
@<TRIPOS>BOND
     1     1     2    1
     2     2     3   ar
     3     3     4   ar
     4     4     5   ar
     5     5     6    2
     6     5     7   ar
     7     7     8   ar
     8     8     9   ar
     9     9    10   ar
    10    10    11   ar
    11    11    12   ar
    12     2    12   ar
    13     7    12   ar
    14     1    13    1
    15     1    14    1
    16     1    15    1
    17     3    16    1
    18     4    17    1
    19     9    18    1
    20    10    19    1
