@<TRIPOS>MOLECULE
O=c1ccc2[nH]ccc2[nH]1
 16 17 0 0 0
SMALL
GASTEIGER
Energy = 0

@<TRIPOS>ATOM
      1 O          -1.7410    0.7195    0.0000 O.2     1  LIG1       -0.2679
      2 C          -1.0265    0.3070    0.0000 C.ar    1  LIG1        0.2493
      3 N          -0.3120    0.7195    0.0000 N.ar    1  LIG1       -0.3209
      4 C           0.4024    0.3070    0.0000 C.ar    1  LIG1        0.0669
      5 C           0.4024   -0.5180    0.0000 C.ar    1  LIG1        0.0631
      6 N           1.1870   -0.7729    0.0000 N.ar    1  LIG1       -0.3595
      7 C           1.6720   -0.1055    0.0000 C.ar    1  LIG1        0.0042
      8 C           1.1870    0.5619    0.0000 C.ar    1  LIG1       -0.0203
      9 C          -0.3120   -0.9305    0.0000 C.ar    1  LIG1       -0.0312
     10 C          -1.0265   -0.5180    0.0000 C.ar    1  LIG1        0.0048
     11 H          -0.3120    1.8020    0.0000 H       1  LIG1        0.1690
     12 H           1.5215   -1.8024    0.0000 H       1  LIG1        0.1654
     13 H           2.7735   -0.1055    0.0000 H       1  LIG1        0.0807
     14 H           1.5273    1.6095    0.0000 H       1  LIG1        0.0653
     15 H          -0.3120   -2.0320    0.0000 H       1  LIG1        0.0640
     16 H          -1.9804   -1.0688    0.0000 H       1  LIG1        0.0672
@<TRIPOS>BOND
     1     1     2    2
     2     2     3   ar
     3     3     4   ar
     4     4     5   ar
     5     5     6   ar
     6     6     7   ar
     7     7     8   ar
     8     4     8   ar
     9     5     9   ar
    10     9    10   ar
    11     2    10   ar
    12     3    11    1
    13     6    12    1
    14     7    13    1
    15     8    14    1
    16     9    15    1
    17    10    16    1
