@<TRIPOS>MOLECULE
Cn1nnc2ncncc12
 15 16 0 0 0
SMALL
GASTEIGER
Energy = 0

@<TRIPOS>ATOM
      1 C           1.0666   -1.3243    0.0000 C.3     1  LIG1        0.0326
      2 N           0.8117   -0.5397    0.0000 N.ar    1  LIG1       -0.2439
      3 N           1.2966    0.1277    0.0000 N.ar    1  LIG1       -0.0632
      4 N           0.8117    0.7952    0.0000 N.ar    1  LIG1       -0.1092
      5 C           0.0270    0.5402    0.0000 C.ar    1  LIG1        0.2044
      6 N          -0.6874    0.9527    0.0000 N.ar    1  LIG1       -0.2131
      7 C          -1.4019    0.5402    0.0000 C.ar    1  LIG1        0.1185
      8 N          -1.4019   -0.2848    0.0000 N.ar    1  LIG1       -0.2415
      9 C          -0.6874   -0.6973    0.0000 C.ar    1  LIG1        0.0580
     10 C           0.0270   -0.2848    0.0000 C.ar    1  LIG1        0.1254
     11 H           2.2062   -1.3542    0.0000 H       1  LIG1        0.0473
     12 H           0.6574   -1.8722   -0.9121 H       1  LIG1        0.0473
     13 H           0.6781   -1.8445    0.9370 H       1  LIG1        0.0473
     14 H          -2.3558    1.0910    0.0000 H       1  LIG1        0.1047
     15 H          -0.6874   -1.7988    0.0000 H       1  LIG1        0.0853
@<TRIPOS>BOND
     1     1     2    1
     2     2     3   ar
     3     3     4   ar
     4     4     5   ar
     5     5     6   ar
     6     6     7   ar
     7     7     8   ar
     8     8     9   ar
     9     9    10   ar
    10     2    10   ar
    11     5    10   ar
    12     1    11    1
    13     1    12    1
    14     1    13    1
    15     7    14    1
    16     9    15    1
