@<TRIPOS>MOLECULE
c1cc2[nH]cccc2n1
 15 16 0 0 0
SMALL
GASTEIGER
Energy = 0

@<TRIPOS>ATOM
      1 N           0.5606   -0.8222    0.0000 N.ar    1  LIG1       -0.3594
      2 C           1.2750   -0.4097    0.0000 C.ar    1  LIG1        0.0022
      3 C           1.2750    0.4153    0.0000 C.ar    1  LIG1       -0.0437
      4 C           0.5606    0.8278    0.0000 C.ar    1  LIG1       -0.0329
      5 C          -0.1539    0.4153    0.0000 C.ar    1  LIG1        0.0871
      6 N          -0.9385    0.6702    0.0000 N.ar    1  LIG1       -0.2534
      7 C          -1.4235    0.0028    0.0000 C.ar    1  LIG1        0.0303
      8 C          -0.9385   -0.6646    0.0000 C.ar    1  LIG1       -0.0182
      9 C          -0.1539   -0.4097    0.0000 C.ar    1  LIG1        0.0663
     10 H           0.5606   -1.9047    0.0000 H       1  LIG1        0.1654
     11 H           2.2289   -0.9604    0.0000 H       1  LIG1        0.0807
     12 H           2.2289    0.9660    0.0000 H       1  LIG1        0.0633
     13 H           0.5606    1.9293    0.0000 H       1  LIG1        0.0640
     14 H          -2.5250    0.0028    0.0000 H       1  LIG1        0.0830
     15 H          -1.2788   -1.7122    0.0000 H       1  LIG1        0.0654
@<TRIPOS>BOND
     1     1     2   ar
     2     2     3   ar
     3     3     4   ar
     4     4     5   ar
     5     5     6   ar
     6     6     7   ar
     7     7     8   ar
     8     8     9   ar
     9     1     9   ar
    10     5     9   ar
    11     1    10    1
    12     2    11    1
    13     3    12    1
    14     4    13    1
    15     7    14    1
    16     8    15    1
