@<TRIPOS>MOLECULE
Cn1cnn2cnnc12
 14 15 0 0 0
SMALL
GASTEIGER
Energy = 0

@<TRIPOS>ATOM
      1 C           0.9420   -1.3000    0.0000 C.3     1  LIG1        0.0161
      2 N           0.6871   -0.5154    0.0000 N.ar    1  LIG1       -0.3013
      3 C           1.1720    0.1520    0.0000 C.ar    1  LIG1        0.1194
      4 N           0.6871    0.8195    0.0000 N.ar    1  LIG1       -0.1527
      5 N          -0.0975    0.5645    0.0000 N.ar    1  LIG1       -0.1841
      6 C          -0.8822    0.8195    0.0000 C.ar    1  LIG1        0.1436
      7 N          -1.3671    0.1520    0.0000 N.ar    1  LIG1       -0.1342
      8 N          -0.8822   -0.5154    0.0000 N.ar    1  LIG1       -0.1089
      9 C          -0.0975   -0.2605    0.0000 C.ar    1  LIG1        0.2535
     10 H           2.0816   -1.3299    0.0000 H       1  LIG1        0.0457
     11 H           0.5328   -1.8479   -0.9121 H       1  LIG1        0.0457
     12 H           0.5535   -1.8202    0.9370 H       1  LIG1        0.0457
     13 H           2.2735    0.1520    0.0000 H       1  LIG1        0.1048
     14 H          -1.2226    1.8671    0.0000 H       1  LIG1        0.1067
@<TRIPOS>BOND
     1     1     2    1
     2     2     3   ar
     3     3     4   ar
     4     4     5   ar
     5     5     6   ar
     6     6     7   ar
     7     7     8   ar
     8     8     9   ar
     9     2     9   ar
    10     5     9   ar
    11     1    10    1
    12     1    11    1
    13     1    12    1
    14     3    13    1
    15     6    14    1
