@<TRIPOS>MOLECULE
Cn1cnc2cccn12
 16 17 0 0 0
SMALL
GASTEIGER
Energy = 0

@<TRIPOS>ATOM
      1 C           0.9027   -1.2920    0.0000 C.3     1  LIG1        0.0304
      2 N           0.6477   -0.5074    0.0000 N.ar    1  LIG1       -0.2707
      3 C           1.1326    0.1601    0.0000 C.ar    1  LIG1        0.1130
      4 N           0.6477    0.8275    0.0000 N.ar    1  LIG1       -0.2171
      5 C          -0.1369    0.5726    0.0000 C.ar    1  LIG1        0.1539
      6 C          -0.9215    0.8275    0.0000 C.ar    1  LIG1       -0.0160
      7 C          -1.4064    0.1601    0.0000 C.ar    1  LIG1       -0.0401
      8 C          -0.9215   -0.5074    0.0000 C.ar    1  LIG1        0.0297
      9 N          -0.1369   -0.2524    0.0000 N.ar    1  LIG1       -0.2409
     10 H           2.0423   -1.3218    0.0000 H       1  LIG1        0.0473
     11 H           0.4936   -1.8400   -0.9121 H       1  LIG1        0.0473
     12 H           0.5142   -1.8123    0.9370 H       1  LIG1        0.0473
     13 H           2.2341    0.1601    0.0000 H       1  LIG1        0.1043
     14 H          -1.2619    1.8751    0.0000 H       1  LIG1        0.0655
     15 H          -2.5079    0.1601    0.0000 H       1  LIG1        0.0634
     16 H          -1.2619   -1.5550    0.0000 H       1  LIG1        0.0830
@<TRIPOS>BOND
     1     1     2    1
     2     2     3   ar
     3     3     4   ar
     4     4     5   ar
     5     5     6   ar
     6     6     7   ar
     7     7     8   ar
     8     8     9   ar
     9     2     9   ar
    10     5     9   ar
    11     1    10    1
    12     1    11    1
    13     1    12    1
    14     3    13    1
    15     6    14    1
    16     7    15    1
    17     8    16    1
