@<TRIPOS>MOLECULE
Cn1ncc(=O)c2ccccc12
 20 21 0 0 0
SMALL
GASTEIGER
Energy = 0

@<TRIPOS>ATOM
      1 C           0.5548   -1.6770    0.0000 C.3     1  LIG1        0.0309
      2 N           0.5548   -0.8520    0.0000 N.ar    1  LIG1       -0.2666
      3 N           1.2692   -0.4395    0.0000 N.ar    1  LIG1       -0.1756
      4 C           1.2692    0.3855    0.0000 C.ar    1  LIG1        0.0952
      5 C           0.5548    0.7980    0.0000 C.ar    1  LIG1        0.2077
      6 O           0.5548    1.6230    0.0000 O.2     1  LIG1       -0.2855
      7 C          -0.1597    0.3855    0.0000 C.ar    1  LIG1        0.0482
      8 C          -0.8742    0.7980    0.0000 C.ar    1  LIG1       -0.0489
      9 C          -1.5886    0.3855    0.0000 C.ar    1  LIG1       -0.0610
     10 C          -1.5886   -0.4395    0.0000 C.ar    1  LIG1       -0.0597
     11 C          -0.8742   -0.8520    0.0000 C.ar    1  LIG1       -0.0360
     12 C          -0.1597   -0.4395    0.0000 C.ar    1  LIG1        0.0708
     13 H           1.6294   -2.0575    0.0000 H       1  LIG1        0.0473
     14 H          -0.0037   -2.0717   -0.9121 H       1  LIG1        0.0473
     15 H           0.0246   -2.0517    0.9370 H       1  LIG1        0.0473
     16 H           2.2231    0.9362    0.0000 H       1  LIG1        0.0887
     17 H          -0.8742    1.8995    0.0000 H       1  LIG1        0.0625
     18 H          -2.5425    0.9362    0.0000 H       1  LIG1        0.0618
     19 H          -2.5425   -0.9902    0.0000 H       1  LIG1        0.0618
     20 H          -0.8742   -1.9535    0.0000 H       1  LIG1        0.0639
@<TRIPOS>BOND
     1     1     2    1
     2     2     3   ar
     3     3     4   ar
     4     4     5   ar
     5     5     6    2
     6     5     7   ar
     7     7     8   ar
     8     8     9   ar
     9     9    10   ar
    10    10    11   ar
    11    11    12   ar
    12     2    12   ar
    13     7    12   ar
    14     1    13    1
    15     1    14    1
    16     1    15    1
    17     4    16    1
    18     8    17    1
    19     9    18    1
    20    10    19    1
    21    11    20    1
