@<TRIPOS>MOLECULE
Cn1ccc2n[nH]c(=O)cc12
 18 19 0 0 0
SMALL
GASTEIGER
Energy = 0

@<TRIPOS>ATOM
      1 C           1.3345   -1.2444    0.0000 C.3     1  LIG1        0.0119
      2 N           1.0796   -0.4598    0.0000 N.ar    1  LIG1       -0.3483
      3 C           1.5645    0.2076    0.0000 C.ar    1  LIG1        0.0069
      4 C           1.0796    0.8751    0.0000 C.ar    1  LIG1       -0.0164
      5 C           0.2950    0.6201    0.0000 C.ar    1  LIG1        0.1090
      6 N          -0.4195    1.0326    0.0000 N.ar    1  LIG1       -0.1694
      7 N          -1.1340    0.6201    0.0000 N.ar    1  LIG1       -0.2426
      8 C          -1.1340   -0.2049    0.0000 C.ar    1  LIG1        0.2667
      9 O          -1.8485   -0.6174    0.0000 O.2     1  LIG1       -0.2664
     10 C          -0.4195   -0.6174    0.0000 C.ar    1  LIG1        0.0298
     11 C           0.2950   -0.2049    0.0000 C.ar    1  LIG1        0.0742
     12 H           2.4741   -1.2743    0.0000 H       1  LIG1        0.0456
     13 H           0.9253   -1.7923   -0.9121 H       1  LIG1        0.0456
     14 H           0.9460   -1.7646    0.9370 H       1  LIG1        0.0456
     15 H           2.6660    0.2076    0.0000 H       1  LIG1        0.0810
     16 H           1.4200    1.9227    0.0000 H       1  LIG1        0.0654
     17 H          -2.0715    1.1614    0.0000 H       1  LIG1        0.1921
     18 H          -0.4195   -1.7189    0.0000 H       1  LIG1        0.0693
@<TRIPOS>BOND
     1     1     2    1
     2     2     3   ar
     3     3     4   ar
     4     4     5   ar
     5     5     6   ar
     6     6     7   ar
     7     7     8   ar
     8     8     9    2
     9     8    10   ar
    10    10    11   ar
    11     2    11   ar
    12     5    11   ar
    13     1    12    1
    14     1    13    1
    15     1    14    1
    16     3    15    1
    17     4    16    1
    18     7    17    1
    19    10    18    1
