@<TRIPOS>MOLECULE
c1cn2ncnc2o1
 11 12 0 0 0
SMALL
GASTEIGER
Energy = 0

@<TRIPOS>ATOM
      1 O           0.7846   -0.6501    0.0000 O.2     1  LIG1       -0.4299
      2 C           1.2696    0.0173    0.0000 C.ar    1  LIG1        0.1141
      3 C           0.7846    0.6848    0.0000 C.ar    1  LIG1        0.0693
      4 N           0.0000    0.4298    0.0000 N.ar    1  LIG1       -0.1863
      5 N          -0.7846    0.6848    0.0000 N.ar    1  LIG1       -0.1510
      6 C          -1.2695    0.0173    0.0000 C.ar    1  LIG1        0.1421
      7 N          -0.7846   -0.6501    0.0000 N.ar    1  LIG1       -0.1814
      8 C           0.0000   -0.3952    0.0000 C.ar    1  LIG1        0.3255
      9 H           2.3711    0.0173    0.0000 H       1  LIG1        0.1046
     10 H           1.1249    1.7324    0.0000 H       1  LIG1        0.0863
     11 H          -2.3710    0.0173    0.0000 H       1  LIG1        0.1067
@<TRIPOS>BOND
     1     1     2   ar
     2     2     3   ar
     3     3     4   ar
     4     4     5   ar
     5     5     6   ar
     6     6     7   ar
     7     7     8   ar
     8     1     8   ar
     9     4     8   ar
    10     2     9    1
    11     3    10    1
    12     6    11    1
