@<TRIPOS>MOLECULE
Cn1c(=O)ncc2[nH]ccc12
 18 19 0 0 0
SMALL
GASTEIGER
Energy = 0

@<TRIPOS>ATOM
      1 C          -0.2713   -1.4212    0.0000 C.3     1  LIG1        0.0168
      2 N          -0.2713   -0.5962    0.0000 N.ar    1  LIG1       -0.2936
      3 C          -0.9857   -0.1837    0.0000 C.ar    1  LIG1        0.3487
      4 O          -1.7002   -0.5962    0.0000 O.2     1  LIG1       -0.2445
      5 N          -0.9857    0.6413    0.0000 N.ar    1  LIG1       -0.1993
      6 C          -0.2713    1.0538    0.0000 C.ar    1  LIG1        0.0583
      7 C           0.4432    0.6413    0.0000 C.ar    1  LIG1        0.0816
      8 C           0.4432   -0.1837    0.0000 C.ar    1  LIG1        0.0721
      9 C           1.2278   -0.4387    0.0000 C.ar    1  LIG1       -0.0200
     10 C           1.7128    0.2288    0.0000 C.ar    1  LIG1        0.0042
     11 N           1.2278    0.8962    0.0000 N.ar    1  LIG1       -0.3583
     12 H          -1.3459   -1.8017    0.0000 H       1  LIG1        0.0457
     13 H           0.2872   -1.8159    0.9121 H       1  LIG1        0.0457
     14 H           0.2589   -1.7959   -0.9370 H       1  LIG1        0.0457
     15 H          -0.2713    2.1553    0.0000 H       1  LIG1        0.0853
     16 H           1.5681   -1.4863    0.0000 H       1  LIG1        0.0653
     17 H           2.8143    0.2288    0.0000 H       1  LIG1        0.0807
     18 H           1.5623    1.9257    0.0000 H       1  LIG1        0.1654
@<TRIPOS>BOND
     1     1     2    1
     2     2     3   ar
     3     3     4    2
     4     3     5   ar
     5     5     6   ar
     6     6     7   ar
     7     7     8   ar
     8     2     8   ar
     9     8     9   ar
    10     9    10   ar
    11    10    11   ar
    12     7    11   ar
    13     1    12    1
    14     1    13    1
    15     1    14    1
    16     6    15    1
    17     9    16    1
    18    10    17    1
    19    11    18    1
