@<TRIPOS>MOLECULE
O=c1ncc2sncc2[nH]1
 13 14 0 0 0
SMALL
GASTEIGER
Energy = 0

@<TRIPOS>ATOM
      1 O          -1.8924    0.8208    0.0000 O.2     1  LIG1       -0.2447
      2 C          -1.1779    0.4083    0.0000 C.ar    1  LIG1        0.3463
      3 N          -0.4634    0.8208    0.0000 N.ar    1  LIG1       -0.3040
      4 C           0.2511    0.4083    0.0000 C.ar    1  LIG1        0.0788
      5 C           0.2511   -0.4167    0.0000 C.ar    1  LIG1        0.0738
      6 S           1.0357   -0.6717    0.0000 S.2     1  LIG1        0.0146
      7 N           1.5206   -0.0042    0.0000 N.ar    1  LIG1       -0.2160
      8 C           1.0357    0.6632    0.0000 C.ar    1  LIG1        0.0607
      9 C          -0.4634   -0.8292    0.0000 C.ar    1  LIG1        0.0502
     10 N          -1.1779   -0.4167    0.0000 N.ar    1  LIG1       -0.2003
     11 H          -0.4634    1.9033    0.0000 H       1  LIG1        0.1705
     12 H           1.3761    1.7108    0.0000 H       1  LIG1        0.0858
     13 H          -0.4634   -1.9307    0.0000 H       1  LIG1        0.0844
@<TRIPOS>BOND
     1     1     2    2
     2     2     3   ar
     3     3     4   ar
     4     4     5   ar
     5     5     6   ar
     6     6     7   ar
     7     7     8   ar
     8     4     8   ar
     9     5     9   ar
    10     9    10   ar
    11     2    10   ar
    12     3    11    1
    13     8    12    1
    14     9    13    1
