@<TRIPOS>MOLECULE
Cn1ccc2c(=O)nn[nH]c12
 17 18 0 0 0
SMALL
GASTEIGER
Energy = 0

@<TRIPOS>ATOM
      1 C           1.1916   -1.4936    0.0000 C.3     1  LIG1        0.0132
      2 N           0.9366   -0.7089    0.0000 N.ar    1  LIG1       -0.3352
      3 C           1.4215   -0.0415    0.0000 C.ar    1  LIG1        0.0069
      4 C           0.9366    0.6259    0.0000 C.ar    1  LIG1       -0.0296
      5 C           0.1520    0.3710    0.0000 C.ar    1  LIG1        0.0860
      6 C           0.1520   -0.4540    0.0000 C.ar    1  LIG1        0.1412
      7 N          -0.5625   -0.8665    0.0000 N.ar    1  LIG1       -0.2428
      8 N          -1.2769   -0.4540    0.0000 N.ar    1  LIG1       -0.0631
      9 N          -1.2769    0.3710    0.0000 N.ar    1  LIG1       -0.0879
     10 C          -0.5625    0.7835    0.0000 C.ar    1  LIG1        0.3006
     11 O          -0.5625    1.6085    0.0000 O.2     1  LIG1       -0.2635
     12 H           2.3312   -1.5234    0.0000 H       1  LIG1        0.0456
     13 H           0.7825   -2.0415   -0.9121 H       1  LIG1        0.0456
     14 H           0.8031   -2.0139    0.9370 H       1  LIG1        0.0456
     15 H           2.5230   -0.0415    0.0000 H       1  LIG1        0.0809
     16 H           1.2770    1.6735    0.0000 H       1  LIG1        0.0641
     17 H          -0.5625   -1.9490    0.0000 H       1  LIG1        0.1922
@<TRIPOS>BOND
     1     1     2    1
     2     2     3   ar
     3     3     4   ar
     4     4     5   ar
     5     5     6   ar
     6     2     6   ar
     7     6     7   ar
     8     7     8   ar
     9     8     9   ar
    10     9    10   ar
    11     5    10   ar
    12    10    11    2
    13     1    12    1
    14     1    13    1
    15     1    14    1
    16     3    15    1
    17     4    16    1
    18     7    17    1
