@<TRIPOS>MOLECULE
Cn1cccc2c(=O)ncnc12
 19 20 0 0 0
SMALL
GASTEIGER
Energy = 0

@<TRIPOS>ATOM
      1 C           0.7515   -1.6767    0.0000 C.3     1  LIG1        0.0132
      2 N           0.7515   -0.8517    0.0000 N.ar    1  LIG1       -0.3348
      3 C           1.4659   -0.4392    0.0000 C.ar    1  LIG1        0.0061
      4 C           1.4659    0.3858    0.0000 C.ar    1  LIG1       -0.0447
      5 C           0.7515    0.7983    0.0000 C.ar    1  LIG1       -0.0444
      6 C           0.0370    0.3858    0.0000 C.ar    1  LIG1        0.0837
      7 C          -0.6775    0.7983    0.0000 C.ar    1  LIG1        0.2823
      8 O          -0.6775    1.6233    0.0000 O.2     1  LIG1       -0.2651
      9 N          -1.3919    0.3858    0.0000 N.ar    1  LIG1       -0.1970
     10 C          -1.3919   -0.4392    0.0000 C.ar    1  LIG1        0.1222
     11 N          -0.6775   -0.8517    0.0000 N.ar    1  LIG1       -0.2175
     12 C           0.0370   -0.4392    0.0000 C.ar    1  LIG1        0.1474
     13 H           1.8261   -2.0572    0.0000 H       1  LIG1        0.0456
     14 H           0.1930   -2.0714   -0.9121 H       1  LIG1        0.0456
     15 H           0.2213   -2.0514    0.9370 H       1  LIG1        0.0456
     16 H           2.4198   -0.9899    0.0000 H       1  LIG1        0.0809
     17 H           2.4198    0.9365    0.0000 H       1  LIG1        0.0632
     18 H           0.7515    1.8998    0.0000 H       1  LIG1        0.0627
     19 H          -2.3458   -0.9899    0.0000 H       1  LIG1        0.1049
@<TRIPOS>BOND
     1     1     2    1
     2     2     3   ar
     3     3     4   ar
     4     4     5   ar
     5     5     6   ar
     6     6     7   ar
     7     7     8    2
     8     7     9   ar
     9     9    10   ar
    10    10    11   ar
    11    11    12   ar
    12     2    12   ar
    13     6    12   ar
    14     1    13    1
    15     1    14    1
    16     1    15    1
    17     3    16    1
    18     4    17    1
    19     5    18    1
    20    10    19    1
