@<TRIPOS>MOLECULE
Cn1c(=O)ccc2c[nH]c(=O)n12
 19 20 0 0 0
SMALL
GASTEIGER
Energy = 0

@<TRIPOS>ATOM
      1 C           0.4455    1.2786    0.0000 C.3     1  LIG1        0.0326
      2 N           0.4455    0.4536    0.0000 N.ar    1  LIG1       -0.2443
      3 N          -0.2690    0.0411    0.0000 N.ar    1  LIG1       -0.1983
      4 C          -1.0536    0.2960    0.0000 C.ar    1  LIG1        0.3461
      5 O          -1.3086    1.0806    0.0000 O.2     1  LIG1       -0.2447
      6 N          -1.5385   -0.3714    0.0000 N.ar    1  LIG1       -0.3110
      7 C          -1.0536   -1.0389    0.0000 C.ar    1  LIG1        0.0319
      8 C          -0.2690   -0.7839    0.0000 C.ar    1  LIG1        0.0850
      9 C           0.4455   -1.1964    0.0000 C.ar    1  LIG1       -0.0296
     10 C           1.1599   -0.7839    0.0000 C.ar    1  LIG1        0.0063
     11 C           1.1599    0.0411    0.0000 C.ar    1  LIG1        0.2659
     12 O           1.8744    0.4536    0.0000 O.2     1  LIG1       -0.2663
     13 H          -0.6291    1.6591    0.0000 H       1  LIG1        0.0473
     14 H           1.0040    1.6733   -0.9121 H       1  LIG1        0.0473
     15 H           0.9757    1.6533    0.9370 H       1  LIG1        0.0473
     16 H          -2.6210   -0.3714    0.0000 H       1  LIG1        0.1699
     17 H          -1.3940   -2.0865    0.0000 H       1  LIG1        0.0830
     18 H           0.4455   -2.2979    0.0000 H       1  LIG1        0.0641
     19 H           2.1138   -1.3346    0.0000 H       1  LIG1        0.0673
@<TRIPOS>BOND
     1     1     2    1
     2     2     3   ar
     3     3     4   ar
     4     4     5    2
     5     4     6   ar
     6     6     7   ar
     7     7     8   ar
     8     3     8   ar
     9     8     9   ar
    10     9    10   ar
    11    10    11   ar
    12     2    11   ar
    13    11    12    2
    14     1    13    1
    15     1    14    1
    16     1    15    1
    17     6    16    1
    18     7    17    1
    19     9    18    1
    20    10    19    1
