@<TRIPOS>MOLECULE
c1occ2ccccc12
 15 16 0 0 0
SMALL
GASTEIGER
Energy = 0

@<TRIPOS>ATOM
      1 O           1.3795    0.0000    0.0000 O.2     1  LIG1       -0.4698
      2 C           0.8946    0.6674    0.0000 C.ar    1  LIG1        0.0994
      3 C           0.1100    0.4125    0.0000 C.ar    1  LIG1        0.0198
      4 C          -0.6045    0.8250    0.0000 C.ar    1  LIG1       -0.0510
      5 C          -1.3190    0.4125    0.0000 C.ar    1  LIG1       -0.0611
      6 C          -1.3190   -0.4125    0.0000 C.ar    1  LIG1       -0.0611
      7 C          -0.6045   -0.8250    0.0000 C.ar    1  LIG1       -0.0510
      8 C           0.1100   -0.4125    0.0000 C.ar    1  LIG1        0.0198
      9 C           0.8946   -0.6674    0.0000 C.ar    1  LIG1        0.0994
     10 H           1.2350    1.7150    0.0000 H       1  LIG1        0.1035
     11 H          -0.6045    1.9265    0.0000 H       1  LIG1        0.0625
     12 H          -2.2729    0.9633    0.0000 H       1  LIG1        0.0618
     13 H          -2.2729   -0.9633    0.0000 H       1  LIG1        0.0618
     14 H          -0.6045   -1.9265    0.0000 H       1  LIG1        0.0625
     15 H           1.2350   -1.7150    0.0000 H       1  LIG1        0.1035
@<TRIPOS>BOND
     1     1     2   ar
     2     2     3   ar
     3     3     4   ar
     4     4     5   ar
     5     5     6   ar
     6     6     7   ar
     7     7     8   ar
     8     3     8   ar
     9     8     9   ar
    10     1     9   ar
    11     2    10    1
    12     4    11    1
    13     5    12    1
    14     6    13    1
    15     7    14    1
    16     9    15    1
