@<TRIPOS>MOLECULE
Cn1cnc2ccnnc12
 16 17 0 0 0
SMALL
GASTEIGER
Energy = 0

@<TRIPOS>ATOM
      1 C           1.0868   -1.2966    0.0000 C.3     1  LIG1        0.0147
      2 N           0.8319   -0.5120    0.0000 N.ar    1  LIG1       -0.3168
      3 C           1.3168    0.1554    0.0000 C.ar    1  LIG1        0.0980
      4 N           0.8319    0.8229    0.0000 N.ar    1  LIG1       -0.2340
      5 C           0.0472    0.5679    0.0000 C.ar    1  LIG1        0.1111
      6 C          -0.6672    0.9804    0.0000 C.ar    1  LIG1       -0.0128
      7 C          -1.3817    0.5679    0.0000 C.ar    1  LIG1        0.0521
      8 N          -1.3817   -0.2571    0.0000 N.ar    1  LIG1       -0.1556
      9 N          -0.6672   -0.6696    0.0000 N.ar    1  LIG1       -0.1292
     10 C           0.0472   -0.2571    0.0000 C.ar    1  LIG1        0.1822
     11 H           2.2264   -1.3265    0.0000 H       1  LIG1        0.0457
     12 H           0.6776   -1.8445   -0.9121 H       1  LIG1        0.0457
     13 H           0.6983   -1.8168    0.9370 H       1  LIG1        0.0457
     14 H           2.4183    0.1554    0.0000 H       1  LIG1        0.1029
     15 H          -0.6672    2.0819    0.0000 H       1  LIG1        0.0656
     16 H          -2.3356    1.1187    0.0000 H       1  LIG1        0.0849
@<TRIPOS>BOND
     1     1     2    1
     2     2     3   ar
     3     3     4   ar
     4     4     5   ar
     5     5     6   ar
     6     6     7   ar
     7     7     8   ar
     8     8     9   ar
     9     9    10   ar
    10     2    10   ar
    11     5    10   ar
    12     1    11    1
    13     1    12    1
    14     1    13    1
    15     3    14    1
    16     6    15    1
    17     7    16    1
