@<TRIPOS>MOLECULE
c1cn2ncnc2[nH]1
 12 13 0 0 0
SMALL
GASTEIGER
Energy = 0

@<TRIPOS>ATOM
      1 N           0.7997   -0.6625    0.0000 N.ar    1  LIG1       -0.3292
      2 C           1.2846    0.0049    0.0000 C.ar    1  LIG1        0.0231
      3 C           0.7997    0.6723    0.0000 C.ar    1  LIG1        0.0488
      4 N           0.0150    0.4174    0.0000 N.ar    1  LIG1       -0.2043
      5 N          -0.7696    0.6723    0.0000 N.ar    1  LIG1       -0.1523
      6 C          -1.2545    0.0049    0.0000 C.ar    1  LIG1        0.1405
      7 N          -0.7696   -0.6625    0.0000 N.ar    1  LIG1       -0.1990
      8 C           0.0150   -0.4076    0.0000 C.ar    1  LIG1        0.2306
      9 H           1.1342   -1.6920    0.0000 H       1  LIG1        0.1683
     10 H           2.3861    0.0049    0.0000 H       1  LIG1        0.0823
     11 H           1.1401    1.7199    0.0000 H       1  LIG1        0.0846
     12 H          -2.3560    0.0049    0.0000 H       1  LIG1        0.1066
@<TRIPOS>BOND
     1     1     2   ar
     2     2     3   ar
     3     3     4   ar
     4     4     5   ar
     5     5     6   ar
     6     6     7   ar
     7     7     8   ar
     8     1     8   ar
     9     4     8   ar
    10     1     9    1
    11     2    10    1
    12     3    11    1
    13     6    12    1
