@<TRIPOS>MOLECULE
Cn1c(=O)ncc2nnncc12
 17 18 0 0 0
SMALL
GASTEIGER
Energy = 0

@<TRIPOS>ATOM
      1 C           0.4613   -1.4464    0.0000 C.3     1  LIG1        0.0168
      2 N           0.4613   -0.6214    0.0000 N.ar    1  LIG1       -0.2921
      3 C           1.1758   -0.2089    0.0000 C.ar    1  LIG1        0.3487
      4 O           1.8903   -0.6214    0.0000 O.2     1  LIG1       -0.2445
      5 N           1.1758    0.6161    0.0000 N.ar    1  LIG1       -0.1991
      6 C           0.4613    1.0286    0.0000 C.ar    1  LIG1        0.0622
      7 C          -0.2532    0.6161    0.0000 C.ar    1  LIG1        0.1310
      8 N          -0.9676    1.0286    0.0000 N.ar    1  LIG1       -0.1263
      9 N          -1.6821    0.6161    0.0000 N.ar    1  LIG1       -0.0426
     10 N          -1.6821   -0.2089    0.0000 N.ar    1  LIG1       -0.1357
     11 C          -0.9676   -0.6214    0.0000 C.ar    1  LIG1        0.0774
     12 C          -0.2532   -0.2089    0.0000 C.ar    1  LIG1        0.0945
     13 H           1.5359   -1.8269    0.0000 H       1  LIG1        0.0457
     14 H          -0.0972   -1.8411   -0.9121 H       1  LIG1        0.0457
     15 H          -0.0689   -1.8211    0.9370 H       1  LIG1        0.0457
     16 H           0.4613    2.1301    0.0000 H       1  LIG1        0.0854
     17 H          -0.9676   -1.7229    0.0000 H       1  LIG1        0.0870
@<TRIPOS>BOND
     1     1     2    1
     2     2     3   ar
     3     3     4    2
     4     3     5   ar
     5     5     6   ar
     6     6     7   ar
     7     7     8   ar
     8     8     9   ar
     9     9    10   ar
    10    10    11   ar
    11    11    12   ar
    12     2    12   ar
    13     7    12   ar
    14     1    13    1
    15     1    14    1
    16     1    15    1
    17     6    16    1
    18    11    17    1
