@<TRIPOS>MOLECULE
Cn1nc2ncncc2nc1=O
 17 18 0 0 0
SMALL
GASTEIGER
Energy = 0

@<TRIPOS>ATOM
      1 C           1.7546    0.8354    0.0000 C.3     1  LIG1        0.0355
      2 N           1.0402    0.4229    0.0000 N.ar    1  LIG1       -0.2142
      3 N           0.3257    0.8354    0.0000 N.ar    1  LIG1       -0.1454
      4 C          -0.3888    0.4229    0.0000 C.ar    1  LIG1        0.2014
      5 N          -1.1032    0.8354    0.0000 N.ar    1  LIG1       -0.2131
      6 C          -1.8177    0.4229    0.0000 C.ar    1  LIG1        0.1185
      7 N          -1.8177   -0.4021    0.0000 N.ar    1  LIG1       -0.2414
      8 C          -1.1032   -0.8146    0.0000 C.ar    1  LIG1        0.0585
      9 C          -0.3888   -0.4021    0.0000 C.ar    1  LIG1        0.1330
     10 N           0.3257   -0.8146    0.0000 N.ar    1  LIG1       -0.1870
     11 C           1.0402   -0.4021    0.0000 C.ar    1  LIG1        0.3650
     12 O           1.7546   -0.8146    0.0000 O.2     1  LIG1       -0.2430
     13 H           1.5468    1.9563    0.0000 H       1  LIG1        0.0474
     14 H           2.3756    0.5491   -0.9121 H       1  LIG1        0.0474
     15 H           2.3443    0.5636    0.9370 H       1  LIG1        0.0474
     16 H          -2.7716    0.9737    0.0000 H       1  LIG1        0.1047
     17 H          -1.1032   -1.9161    0.0000 H       1  LIG1        0.0853
@<TRIPOS>BOND
     1     1     2    1
     2     2     3   ar
     3     3     4   ar
     4     4     5   ar
     5     5     6   ar
     6     6     7   ar
     7     7     8   ar
     8     8     9   ar
     9     4     9   ar
    10     9    10   ar
    11    10    11   ar
    12     2    11   ar
    13    11    12    2
    14     1    13    1
    15     1    14    1
    16     1    15    1
    17     6    16    1
    18     8    17    1
