@<TRIPOS>MOLECULE
c1nc2cn[nH]cc2n1
 13 14 0 0 0
SMALL
GASTEIGER
Energy = 0

@<TRIPOS>ATOM
      1 N           1.2570    0.4125    0.0000 N.ar    1  LIG1       -0.2826
      2 C           0.5425    0.8250    0.0000 C.ar    1  LIG1        0.0483
      3 C          -0.1720    0.4125    0.0000 C.ar    1  LIG1        0.1098
      4 N          -0.9566    0.6674    0.0000 N.ar    1  LIG1       -0.2324
      5 C          -1.4415   -0.0000    0.0000 C.ar    1  LIG1        0.1175
      6 N          -0.9566   -0.6674    0.0000 N.ar    1  LIG1       -0.2323
      7 C          -0.1720   -0.4125    0.0000 C.ar    1  LIG1        0.1120
      8 C           0.5425   -0.8250    0.0000 C.ar    1  LIG1        0.0752
      9 N           1.2570   -0.4125    0.0000 N.ar    1  LIG1       -0.1801
     10 H           2.1945    0.9538    0.0000 H       1  LIG1        0.1883
     11 H           0.5425    1.9265    0.0000 H       1  LIG1        0.0845
     12 H          -2.5430    0.0000    0.0000 H       1  LIG1        0.1047
     13 H           0.5425   -1.9265    0.0000 H       1  LIG1        0.0870
@<TRIPOS>BOND
     1     1     2   ar
     2     2     3   ar
     3     3     4   ar
     4     4     5   ar
     5     5     6   ar
     6     6     7   ar
     7     3     7   ar
     8     7     8   ar
     9     8     9   ar
    10     1     9   ar
    11     1    10    1
    12     2    11    1
    13     5    12    1
    14     8    13    1
