@<TRIPOS>MOLECULE
Cn1cnc2ncnc2c1
 16 17 0 0 0
SMALL
GASTEIGER
Energy = 0

@<TRIPOS>ATOM
      1 C           1.7977   -0.7541    0.0000 C.3     1  LIG1        0.0127
      2 N           1.0832   -0.3416    0.0000 N.ar    1  LIG1       -0.3391
      3 C           1.0832    0.4834    0.0000 C.ar    1  LIG1        0.0981
      4 N           0.3688    0.8959    0.0000 N.ar    1  LIG1       -0.2163
      5 C          -0.3457    0.4834    0.0000 C.ar    1  LIG1        0.1826
      6 N          -1.1303    0.7384    0.0000 N.ar    1  LIG1       -0.2145
      7 C          -1.6153    0.0709    0.0000 C.ar    1  LIG1        0.1192
      8 N          -1.1303   -0.5965    0.0000 N.ar    1  LIG1       -0.2308
      9 C          -0.3457   -0.3416    0.0000 C.ar    1  LIG1        0.1257
     10 C           0.3688   -0.7541    0.0000 C.ar    1  LIG1        0.0346
     11 H           2.6645   -0.0137    0.0000 H       1  LIG1        0.0456
     12 H           1.8603   -1.4351   -0.9121 H       1  LIG1        0.0456
     13 H           1.8571   -1.4007    0.9370 H       1  LIG1        0.0456
     14 H           2.0371    1.0341    0.0000 H       1  LIG1        0.1029
     15 H          -2.7168    0.0709    0.0000 H       1  LIG1        0.1048
     16 H           0.3688   -1.8556    0.0000 H       1  LIG1        0.0832
@<TRIPOS>BOND
     1     1     2    1
     2     2     3   ar
     3     3     4   ar
     4     4     5   ar
     5     5     6   ar
     6     6     7   ar
     7     7     8   ar
     8     8     9   ar
     9     5     9   ar
    10     9    10   ar
    11     2    10   ar
    12     1    11    1
    13     1    12    1
    14     1    13    1
    15     3    14    1
    16     7    15    1
    17    10    16    1
