@<TRIPOS>MOLECULE
O=c1nc[nH]c2ccncc12
 16 17 0 0 0
SMALL
GASTEIGER
Energy = 0

@<TRIPOS>ATOM
      1 O           0.6240   -1.4642    0.0000 O.2     1  LIG1       -0.2651
      2 C           0.6240   -0.6392    0.0000 C.ar    1  LIG1        0.2821
      3 N           1.3385   -0.2267    0.0000 N.ar    1  LIG1       -0.1990
      4 C           1.3385    0.5983    0.0000 C.ar    1  LIG1        0.0977
      5 N           0.6240    1.0108    0.0000 N.ar    1  LIG1       -0.3453
      6 C          -0.0905    0.5983    0.0000 C.ar    1  LIG1        0.0557
      7 C          -0.8050    1.0108    0.0000 C.ar    1  LIG1       -0.0195
      8 C          -1.5194    0.5983    0.0000 C.ar    1  LIG1        0.0295
      9 N          -1.5194   -0.2267    0.0000 N.ar    1  LIG1       -0.2624
     10 C          -0.8050   -0.6392    0.0000 C.ar    1  LIG1        0.0419
     11 C          -0.0905   -0.2267    0.0000 C.ar    1  LIG1        0.0825
     12 H           2.2924    1.1491    0.0000 H       1  LIG1        0.1028
     13 H           0.6240    2.0933    0.0000 H       1  LIG1        0.1668
     14 H          -0.8050    2.1123    0.0000 H       1  LIG1        0.0653
     15 H          -2.4733    1.1490    0.0000 H       1  LIG1        0.0830
     16 H          -0.8050   -1.7407    0.0000 H       1  LIG1        0.0838
@<TRIPOS>BOND
     1     1     2    2
     2     2     3   ar
     3     3     4   ar
     4     4     5   ar
     5     5     6   ar
     6     6     7   ar
     7     7     8   ar
     8     8     9   ar
     9     9    10   ar
    10    10    11   ar
    11     2    11   ar
    12     6    11   ar
    13     4    12    1
    14     5    13    1
    15     7    14    1
    16     8    15    1
    17    10    16    1
