@<TRIPOS>MOLECULE
O=c1ncc2[nH]c(=O)ncc2[nH]1
 16 17 0 0 0
SMALL
GASTEIGER
Energy = 0

@<TRIPOS>ATOM
      1 O           2.1434    0.8250    0.0000 O.2     1  LIG1       -0.2447
      2 C           1.4289    0.4125    0.0000 C.ar    1  LIG1        0.3464
      3 N           0.7145    0.8250    0.0000 N.ar    1  LIG1       -0.3033
      4 C           0.0000    0.4125    0.0000 C.ar    1  LIG1        0.0868
      5 C           0.0000   -0.4125    0.0000 C.ar    1  LIG1        0.0868
      6 N          -0.7145   -0.8250    0.0000 N.ar    1  LIG1       -0.3033
      7 C          -1.4289   -0.4125    0.0000 C.ar    1  LIG1        0.3464
      8 O          -2.1434   -0.8250    0.0000 O.2     1  LIG1       -0.2447
      9 N          -1.4289    0.4125    0.0000 N.ar    1  LIG1       -0.1994
     10 C          -0.7145    0.8250    0.0000 C.ar    1  LIG1        0.0585
     11 C           0.7145   -0.8250    0.0000 C.ar    1  LIG1        0.0585
     12 N           1.4289   -0.4125    0.0000 N.ar    1  LIG1       -0.1994
     13 H           0.7145    1.9075    0.0000 H       1  LIG1        0.1705
     14 H          -0.7145   -1.9075    0.0000 H       1  LIG1        0.1705
     15 H          -0.7145    1.9265    0.0000 H       1  LIG1        0.0853
     16 H           0.7145   -1.9265    0.0000 H       1  LIG1        0.0853
@<TRIPOS>BOND
     1     1     2    2
     2     2     3   ar
     3     3     4   ar
     4     4     5   ar
     5     5     6   ar
     6     6     7   ar
     7     7     8    2
     8     7     9   ar
     9     9    10   ar
    10     4    10   ar
    11     5    11   ar
    12    11    12   ar
    13     2    12   ar
    14     3    13    1
    15     6    14    1
    16    10    15    1
    17    11    16    1
