@<TRIPOS>MOLECULE
Cn1cnc2ccccc12
 18 19 0 0 0
SMALL
GASTEIGER
Energy = 0

@<TRIPOS>ATOM
      1 C           1.0539   -1.3115    0.0000 C.3     1  LIG1        0.0133
      2 N           0.7989   -0.5269    0.0000 N.ar    1  LIG1       -0.3332
      3 C           1.2838    0.1405    0.0000 C.ar    1  LIG1        0.0968
      4 N           0.7989    0.8080    0.0000 N.ar    1  LIG1       -0.2357
      5 C           0.0143    0.5530    0.0000 C.ar    1  LIG1        0.0890
      6 C          -0.7002    0.9655    0.0000 C.ar    1  LIG1       -0.0342
      7 C          -1.4146    0.5530    0.0000 C.ar    1  LIG1       -0.0596
      8 C          -1.4146   -0.2720    0.0000 C.ar    1  LIG1       -0.0597
      9 C          -0.7002   -0.6845    0.0000 C.ar    1  LIG1       -0.0361
     10 C           0.0143   -0.2720    0.0000 C.ar    1  LIG1        0.0684
     11 H           2.1935   -1.3413    0.0000 H       1  LIG1        0.0456
     12 H           0.6448   -1.8595   -0.9121 H       1  LIG1        0.0456
     13 H           0.6654   -1.8318    0.9370 H       1  LIG1        0.0456
     14 H           2.3853    0.1405    0.0000 H       1  LIG1        0.1029
     15 H          -0.7002    2.0670    0.0000 H       1  LIG1        0.0639
     16 H          -2.3685    1.1037    0.0000 H       1  LIG1        0.0618
     17 H          -2.3685   -0.8227    0.0000 H       1  LIG1        0.0618
     18 H          -0.7002   -1.7860    0.0000 H       1  LIG1        0.0639
@<TRIPOS>BOND
     1     1     2    1
     2     2     3   ar
     3     3     4   ar
     4     4     5   ar
     5     5     6   ar
     6     6     7   ar
     7     7     8   ar
     8     8     9   ar
     9     9    10   ar
    10     2    10   ar
    11     5    10   ar
    12     1    11    1
    13     1    12    1
    14     1    13    1
    15     3    14    1
    16     6    15    1
    17     7    16    1
    18     8    17    1
    19     9    18    1
