@<TRIPOS>MOLECULE
Cn1ccn2c(=O)[nH]c(=O)nc12
 18 19 0 0 0
SMALL
GASTEIGER
Energy = 0

@<TRIPOS>ATOM
      1 C           1.3728   -1.4172    0.0000 C.3     1  LIG1        0.0146
      2 N           1.1178   -0.6326    0.0000 N.ar    1  LIG1       -0.3193
      3 C           1.6027    0.0348    0.0000 C.ar    1  LIG1        0.0242
      4 C           1.1178    0.7023    0.0000 C.ar    1  LIG1        0.0336
      5 N           0.3332    0.4473    0.0000 N.ar    1  LIG1       -0.2373
      6 C          -0.3813    0.8598    0.0000 C.ar    1  LIG1        0.3372
      7 O          -0.3813    1.6848    0.0000 O.2     1  LIG1       -0.2460
      8 N          -1.0957    0.4473    0.0000 N.ar    1  LIG1       -0.2582
      9 C          -1.0957   -0.3777    0.0000 C.ar    1  LIG1        0.3527
     10 O          -1.8102   -0.7902    0.0000 O.2     1  LIG1       -0.2445
     11 N          -0.3813   -0.7902    0.0000 N.ar    1  LIG1       -0.1580
     12 C           0.3332   -0.3777    0.0000 C.ar    1  LIG1        0.2233
     13 H           2.5124   -1.4470    0.0000 H       1  LIG1        0.0457
     14 H           0.9637   -1.9652   -0.9121 H       1  LIG1        0.0457
     15 H           0.9843   -1.9375    0.9370 H       1  LIG1        0.0457
     16 H           2.7042    0.0348    0.0000 H       1  LIG1        0.0825
     17 H           1.4582    1.7499    0.0000 H       1  LIG1        0.0830
     18 H          -2.0332    0.9885    0.0000 H       1  LIG1        0.1750
@<TRIPOS>BOND
     1     1     2    1
     2     2     3   ar
     3     3     4   ar
     4     4     5   ar
     5     5     6   ar
     6     6     7    2
     7     6     8   ar
     8     8     9   ar
     9     9    10    2
    10     9    11   ar
    11    11    12   ar
    12     2    12   ar
    13     5    12   ar
    14     1    13    1
    15     1    14    1
    16     1    15    1
    17     3    16    1
    18     4    17    1
    19     8    18    1
