@<TRIPOS>MOLECULE
Cn1cc2ccccc2cc1=O
 21 22 0 0 0
SMALL
GASTEIGER
Energy = 0

@<TRIPOS>ATOM
      1 C           1.7245    0.8414    0.0000 C.3     1  LIG1        0.0147
      2 N           1.0100    0.4289    0.0000 N.ar    1  LIG1       -0.3177
      3 C           0.2955    0.8414    0.0000 C.ar    1  LIG1        0.0153
      4 C          -0.4189    0.4289    0.0000 C.ar    1  LIG1       -0.0015
      5 C          -1.1334    0.8414    0.0000 C.ar    1  LIG1       -0.0526
      6 C          -1.8479    0.4289    0.0000 C.ar    1  LIG1       -0.0611
      7 C          -1.8479   -0.3961    0.0000 C.ar    1  LIG1       -0.0612
      8 C          -1.1334   -0.8086    0.0000 C.ar    1  LIG1       -0.0538
      9 C          -0.4189   -0.3961    0.0000 C.ar    1  LIG1       -0.0114
     10 C           0.2955   -0.8086    0.0000 C.ar    1  LIG1        0.0107
     11 C           1.0100   -0.3961    0.0000 C.ar    1  LIG1        0.2516
     12 O           1.7245   -0.8086    0.0000 O.2     1  LIG1       -0.2677
     13 H           1.5168    1.9623    0.0000 H       1  LIG1        0.0457
     14 H           2.3455    0.5551   -0.9121 H       1  LIG1        0.0457
     15 H           2.3142    0.5696    0.9370 H       1  LIG1        0.0457
     16 H           0.2955    1.9429    0.0000 H       1  LIG1        0.0816
     17 H          -1.1334    1.9429    0.0000 H       1  LIG1        0.0624
     18 H          -2.8018    0.9797    0.0000 H       1  LIG1        0.0618
     19 H          -2.8018   -0.9469    0.0000 H       1  LIG1        0.0618
     20 H          -1.1334   -1.9101    0.0000 H       1  LIG1        0.0624
     21 H           0.2955   -1.9101    0.0000 H       1  LIG1        0.0678
@<TRIPOS>BOND
     1     1     2    1
     2     2     3   ar
     3     3     4   ar
     4     4     5   ar
     5     5     6   ar
     6     6     7   ar
     7     7     8   ar
     8     8     9   ar
     9     4     9   ar
    10     9    10   ar
    11    10    11   ar
    12     2    11   ar
    13    11    12    2
    14     1    13    1
    15     1    14    1
    16     1    15    1
    17     3    16    1
    18     5    17    1
    19     6    18    1
    20     7    19    1
    21     8    20    1
    22    10    21    1
