@<TRIPOS>MOLECULE
O=c1nc2ccncn2[nH]1
 14 15 0 0 0
SMALL
GASTEIGER
Energy = 0

@<TRIPOS>ATOM
      1 O           1.9704   -0.0125    0.0000 O.2     1  LIG1       -0.2432
      2 C           1.1454   -0.0125    0.0000 C.ar    1  LIG1        0.3627
      3 N           0.6605    0.6550    0.0000 N.ar    1  LIG1       -0.2401
      4 N          -0.1242    0.4000    0.0000 N.ar    1  LIG1       -0.2220
      5 C          -0.8386    0.8125    0.0000 C.ar    1  LIG1        0.1177
      6 N          -1.5531    0.4000    0.0000 N.ar    1  LIG1       -0.2436
      7 C          -1.5531   -0.4250    0.0000 C.ar    1  LIG1        0.0328
      8 C          -0.8386   -0.8375    0.0000 C.ar    1  LIG1        0.0008
      9 C          -0.1242   -0.4250    0.0000 C.ar    1  LIG1        0.1605
     10 N           0.6605   -0.6799    0.0000 N.ar    1  LIG1       -0.1728
     11 H           0.9950    1.6845    0.0000 H       1  LIG1        0.1922
     12 H          -0.8386    1.9140    0.0000 H       1  LIG1        0.1047
     13 H          -2.5070   -0.9758    0.0000 H       1  LIG1        0.0831
     14 H          -0.8386   -1.9390    0.0000 H       1  LIG1        0.0670
@<TRIPOS>BOND
     1     1     2    2
     2     2     3   ar
     3     3     4   ar
     4     4     5   ar
     5     5     6   ar
     6     6     7   ar
     7     7     8   ar
     8     8     9   ar
     9     4     9   ar
    10     9    10   ar
    11     2    10   ar
    12     3    11    1
    13     5    12    1
    14     7    13    1
    15     8    14    1
