@<TRIPOS>MOLECULE
c1csnn1
 7 7 0 0 0
SMALL
GASTEIGER
Energy = 0

@<TRIPOS>ATOM
      1 S          -0.1433   -0.5241    0.0000 S.2     1  LIG1        0.0281
      2 C           0.6413   -0.2692    0.0000 C.ar    1  LIG1        0.0158
      3 C           0.6413    0.5558    0.0000 C.ar    1  LIG1        0.0585
      4 N          -0.1433    0.8108    0.0000 N.ar    1  LIG1       -0.1496
      5 N          -0.6283    0.1433    0.0000 N.ar    1  LIG1       -0.1106
      6 H           1.5324   -0.9167    0.0000 H       1  LIG1        0.0724
      7 H           1.5325    1.2032    0.0000 H       1  LIG1        0.0854
@<TRIPOS>BOND
     1     1     2   ar
     2     2     3   ar
     3     3     4   ar
     4     4     5   ar
     5     1     5   ar
     6     2     6    1
     7     3     7    1
