@<TRIPOS>MOLECULE
O=c1ccc2c[nH]c(=O)cc2[nH]1
 18 19 0 0 0
SMALL
GASTEIGER
Energy = 0

@<TRIPOS>ATOM
      1 O           2.1343   -0.6506    0.0000 O.2     1  LIG1       -0.2678
      2 C           1.4198   -0.2381    0.0000 C.ar    1  LIG1        0.2507
      3 N           1.4198    0.5869    0.0000 N.ar    1  LIG1       -0.3284
      4 C           0.7053    0.9994    0.0000 C.ar    1  LIG1        0.0140
      5 C          -0.0091    0.5869    0.0000 C.ar    1  LIG1        0.0147
      6 C          -0.7236    0.9994    0.0000 C.ar    1  LIG1       -0.0461
      7 C          -1.4381    0.5869    0.0000 C.ar    1  LIG1        0.0034
      8 C          -1.4381   -0.2381    0.0000 C.ar    1  LIG1        0.2492
      9 O          -2.1525   -0.6506    0.0000 O.2     1  LIG1       -0.2679
     10 N          -0.7236   -0.6506    0.0000 N.ar    1  LIG1       -0.3219
     11 C          -0.0091   -0.2381    0.0000 C.ar    1  LIG1        0.0557
     12 C           0.7053   -0.6506    0.0000 C.ar    1  LIG1        0.0267
     13 H           2.3573    1.1282    0.0000 H       1  LIG1        0.1683
     14 H           0.7053    2.1009    0.0000 H       1  LIG1        0.0814
     15 H          -0.7236    2.1009    0.0000 H       1  LIG1        0.0626
     16 H          -2.3920    1.1377    0.0000 H       1  LIG1        0.0672
     17 H          -0.7236   -1.7331    0.0000 H       1  LIG1        0.1689
     18 H           0.7053   -1.7521    0.0000 H       1  LIG1        0.0692
@<TRIPOS>BOND
     1     1     2    2
     2     2     3   ar
     3     3     4   ar
     4     4     5   ar
     5     5     6   ar
     6     6     7   ar
     7     7     8   ar
     8     8     9    2
     9     8    10   ar
    10    10    11   ar
    11     5    11   ar
    12    11    12   ar
    13     2    12   ar
    14     3    13    1
    15     4    14    1
    16     6    15    1
    17     7    16    1
    18    10    17    1
    19    12    18    1
