@<TRIPOS>MOLECULE
c1[nH]nc2nnccc12
 13 14 0 0 0
SMALL
GASTEIGER
Energy = 0

@<TRIPOS>ATOM
      1 N           1.4209    0.0328    0.0000 N.ar    1  LIG1       -0.2821
      2 C           0.9360    0.7002    0.0000 C.ar    1  LIG1        0.0317
      3 C           0.1514    0.4453    0.0000 C.ar    1  LIG1        0.0415
      4 C          -0.5631    0.8578    0.0000 C.ar    1  LIG1       -0.0296
      5 C          -1.2776    0.4453    0.0000 C.ar    1  LIG1        0.0507
      6 N          -1.2776   -0.3797    0.0000 N.ar    1  LIG1       -0.1556
      7 N          -0.5631   -0.7922    0.0000 N.ar    1  LIG1       -0.1274
      8 C           0.1514   -0.3797    0.0000 C.ar    1  LIG1        0.2025
      9 N           0.9360   -0.6347    0.0000 N.ar    1  LIG1       -0.1520
     10 H           2.5034    0.0328    0.0000 H       1  LIG1        0.1883
     11 H           1.2764    1.7478    0.0000 H       1  LIG1        0.0830
     12 H          -0.5631    1.9593    0.0000 H       1  LIG1        0.0641
     13 H          -2.2315    0.9961    0.0000 H       1  LIG1        0.0848
@<TRIPOS>BOND
     1     1     2   ar
     2     2     3   ar
     3     3     4   ar
     4     4     5   ar
     5     5     6   ar
     6     6     7   ar
     7     7     8   ar
     8     3     8   ar
     9     8     9   ar
    10     1     9   ar
    11     1    10    1
    12     2    11    1
    13     4    12    1
    14     5    13    1
