@<TRIPOS>MOLECULE
Cn1cc2ccnc2[nH]c1=O
 18 19 0 0 0
SMALL
GASTEIGER
Energy = 0

@<TRIPOS>ATOM
      1 C           1.5794    0.8633    0.0000 C.3     1  LIG1        0.0161
      2 N           0.8649    0.4508    0.0000 N.ar    1  LIG1       -0.3030
      3 C           0.1505    0.8633    0.0000 C.ar    1  LIG1        0.0197
      4 C          -0.5640    0.4508    0.0000 C.ar    1  LIG1        0.0350
      5 C          -1.3486    0.7058    0.0000 C.ar    1  LIG1       -0.0315
      6 C          -1.8335    0.0383    0.0000 C.ar    1  LIG1        0.0306
      7 N          -1.3486   -0.6291    0.0000 N.ar    1  LIG1       -0.2373
      8 C          -0.5640   -0.3742    0.0000 C.ar    1  LIG1        0.1433
      9 N           0.1505   -0.7867    0.0000 N.ar    1  LIG1       -0.2920
     10 C           0.8649   -0.3742    0.0000 C.ar    1  LIG1        0.3279
     11 O           1.5794   -0.7867    0.0000 O.2     1  LIG1       -0.2465
     12 H           1.3717    1.9842    0.0000 H       1  LIG1        0.0457
     13 H           2.2004    0.5770   -0.9121 H       1  LIG1        0.0457
     14 H           2.1691    0.5915    0.9370 H       1  LIG1        0.0457
     15 H           0.1505    1.9648    0.0000 H       1  LIG1        0.0817
     16 H          -1.6890    1.7534    0.0000 H       1  LIG1        0.0640
     17 H          -2.9350    0.0383    0.0000 H       1  LIG1        0.0830
     18 H           0.1505   -1.8692    0.0000 H       1  LIG1        0.1719
@<TRIPOS>BOND
     1     1     2    1
     2     2     3   ar
     3     3     4   ar
     4     4     5   ar
     5     5     6   ar
     6     6     7   ar
     7     7     8   ar
     8     4     8   ar
     9     8     9   ar
    10     9    10   ar
    11     2    10   ar
    12    10    11    2
    13     1    12    1
    14     1    13    1
    15     1    14    1
    16     3    15    1
    17     5    16    1
    18     6    17    1
    19     9    18    1
