@<TRIPOS>MOLECULE
Cn1ccc2ccnc(=O)c2c1
 20 21 0 0 0
SMALL
GASTEIGER
Energy = 0

@<TRIPOS>ATOM
      1 C           2.0493   -0.5755    0.0000 C.3     1  LIG1        0.0113
      2 N           1.3348   -0.1630    0.0000 N.ar    1  LIG1       -0.3555
      3 C           1.3348    0.6620    0.0000 C.ar    1  LIG1        0.0048
      4 C           0.6204    1.0745    0.0000 C.ar    1  LIG1       -0.0376
      5 C          -0.0941    0.6620    0.0000 C.ar    1  LIG1       -0.0084
      6 C          -0.8086    1.0745    0.0000 C.ar    1  LIG1       -0.0355
      7 C          -1.5230    0.6620    0.0000 C.ar    1  LIG1        0.0321
      8 N          -1.5230   -0.1630    0.0000 N.ar    1  LIG1       -0.2169
      9 C          -0.8086   -0.5755    0.0000 C.ar    1  LIG1        0.2793
     10 O          -0.8086   -1.4005    0.0000 O.2     1  LIG1       -0.2652
     11 C          -0.0941   -0.1630    0.0000 C.ar    1  LIG1        0.0645
     12 C           0.6204   -0.5755    0.0000 C.ar    1  LIG1        0.0172
     13 H           2.9161    0.1649    0.0000 H       1  LIG1        0.0455
     14 H           2.1119   -1.2565   -0.9121 H       1  LIG1        0.0455
     15 H           2.1087   -1.2221    0.9370 H       1  LIG1        0.0455
     16 H           2.2887    1.2127    0.0000 H       1  LIG1        0.0809
     17 H           0.6204    2.1760    0.0000 H       1  LIG1        0.0638
     18 H          -0.8086    2.1760    0.0000 H       1  LIG1        0.0639
     19 H          -2.4769    1.2127    0.0000 H       1  LIG1        0.0831
     20 H           0.6204   -1.6770    0.0000 H       1  LIG1        0.0817
@<TRIPOS>BOND
     1     1     2    1
     2     2     3   ar
     3     3     4   ar
     4     4     5   ar
     5     5     6   ar
     6     6     7   ar
     7     7     8   ar
     8     8     9   ar
     9     9    10    2
    10     9    11   ar
    11     5    11   ar
    12    11    12   ar
    13     2    12   ar
    14     1    13    1
    15     1    14    1
    16     1    15    1
    17     3    16    1
    18     4    17    1
    19     6    18    1
    20     7    19    1
    21    12    20    1
