@<TRIPOS>MOLECULE
Cn1c(=O)ncn2nccc12
 17 18 0 0 0
SMALL
GASTEIGER
Energy = 0

@<TRIPOS>ATOM
      1 C           0.2774   -1.4301    0.0000 C.3     1  LIG1        0.0181
      2 N           0.2774   -0.6051    0.0000 N.ar    1  LIG1       -0.2799
      3 C           0.9919   -0.1926    0.0000 C.ar    1  LIG1        0.3511
      4 O           1.7063   -0.6051    0.0000 O.2     1  LIG1       -0.2444
      5 N           0.9919    0.6324    0.0000 N.ar    1  LIG1       -0.1814
      6 C           0.2774    1.0449    0.0000 C.ar    1  LIG1        0.1251
      7 N          -0.4371    0.6324    0.0000 N.ar    1  LIG1       -0.2050
      8 N          -1.2217    0.8873    0.0000 N.ar    1  LIG1       -0.1720
      9 C          -1.7066    0.2199    0.0000 C.ar    1  LIG1        0.0519
     10 C          -1.2217   -0.4475    0.0000 C.ar    1  LIG1        0.0008
     11 C          -0.4371   -0.1926    0.0000 C.ar    1  LIG1        0.1417
     12 H           1.3520   -1.8106    0.0000 H       1  LIG1        0.0458
     13 H          -0.2811   -1.8248   -0.9121 H       1  LIG1        0.0458
     14 H          -0.2528   -1.8048    0.9370 H       1  LIG1        0.0458
     15 H           0.2774    2.1464    0.0000 H       1  LIG1        0.1050
     16 H          -2.8081    0.2199    0.0000 H       1  LIG1        0.0848
     17 H          -1.5621   -1.4951    0.0000 H       1  LIG1        0.0670
@<TRIPOS>BOND
     1     1     2    1
     2     2     3   ar
     3     3     4    2
     4     3     5   ar
     5     5     6   ar
     6     6     7   ar
     7     7     8   ar
     8     8     9   ar
     9     9    10   ar
    10    10    11   ar
    11     2    11   ar
    12     7    11   ar
    13     1    12    1
    14     1    13    1
    15     1    14    1
    16     6    15    1
    17     9    16    1
    18    10    17    1
