@<TRIPOS>MOLECULE
c1nsc2ncccc12
 13 14 0 0 0
SMALL
GASTEIGER
Energy = 0

@<TRIPOS>ATOM
      1 S           0.7888   -0.5537    0.0000 S.2     1  LIG1        0.0316
      2 N           1.2737    0.1138    0.0000 N.ar    1  LIG1       -0.2160
      3 C           0.7888    0.7812    0.0000 C.ar    1  LIG1        0.0459
      4 C           0.0041    0.5263    0.0000 C.ar    1  LIG1        0.0273
      5 C          -0.7103    0.9388    0.0000 C.ar    1  LIG1       -0.0491
      6 C          -1.4248    0.5263    0.0000 C.ar    1  LIG1       -0.0429
      7 C          -1.4248   -0.2987    0.0000 C.ar    1  LIG1        0.0289
      8 N          -0.7103   -0.7112    0.0000 N.ar    1  LIG1       -0.2464
      9 C           0.0041   -0.2987    0.0000 C.ar    1  LIG1        0.1276
     10 H           1.1292    1.8288    0.0000 H       1  LIG1        0.0843
     11 H          -0.7103    2.0403    0.0000 H       1  LIG1        0.0625
     12 H          -2.3787    1.0771    0.0000 H       1  LIG1        0.0633
     13 H          -2.3787   -0.8495    0.0000 H       1  LIG1        0.0830
@<TRIPOS>BOND
     1     1     2   ar
     2     2     3   ar
     3     3     4   ar
     4     4     5   ar
     5     5     6   ar
     6     6     7   ar
     7     7     8   ar
     8     8     9   ar
     9     1     9   ar
    10     4     9   ar
    11     3    10    1
    12     5    11    1
    13     6    12    1
    14     7    13    1
