@<TRIPOS>MOLECULE
c1nnc2ncccn12
 13 14 0 0 0
SMALL
GASTEIGER
Energy = 0

@<TRIPOS>ATOM
      1 C           1.3022    0.4311    0.0000 C.ar    1  LIG1       -0.0269
      2 C           0.5877    0.8436    0.0000 C.ar    1  LIG1        0.0155
      3 N          -0.1268    0.4311    0.0000 N.ar    1  LIG1       -0.2732
      4 C          -0.9114    0.6860    0.0000 C.ar    1  LIG1        0.1253
      5 N          -1.3963    0.0186    0.0000 N.ar    1  LIG1       -0.1357
      6 N          -0.9114   -0.6489    0.0000 N.ar    1  LIG1       -0.1087
      7 C          -0.1268   -0.3939    0.0000 C.ar    1  LIG1        0.2553
      8 N           0.5877   -0.8064    0.0000 N.ar    1  LIG1       -0.2189
      9 C           1.3022   -0.3939    0.0000 C.ar    1  LIG1        0.0328
     10 H           2.2561    0.9819    0.0000 H       1  LIG1        0.0647
     11 H           0.5877    1.9451    0.0000 H       1  LIG1        0.0815
     12 H          -1.2518    1.7336    0.0000 H       1  LIG1        0.1052
     13 H           2.2561   -0.9447    0.0000 H       1  LIG1        0.0831
@<TRIPOS>BOND
     1     1     2   ar
     2     2     3   ar
     3     3     4   ar
     4     4     5   ar
     5     5     6   ar
     6     6     7   ar
     7     3     7   ar
     8     7     8   ar
     9     8     9   ar
    10     1     9   ar
    11     1    10    1
    12     2    11    1
    13     4    12    1
    14     9    13    1
