@<TRIPOS>MOLECULE
Cn1c(=O)ccc2ccnnc12
 19 20 0 0 0
SMALL
GASTEIGER
Energy = 0

@<TRIPOS>ATOM
      1 C           0.4548   -1.4090    0.0000 C.3     1  LIG1        0.0167
      2 N           0.4548   -0.5840    0.0000 N.ar    1  LIG1       -0.2945
      3 C           1.1692   -0.1715    0.0000 C.ar    1  LIG1        0.2526
      4 O           1.8837   -0.5840    0.0000 O.2     1  LIG1       -0.2677
      5 C           1.1692    0.6535    0.0000 C.ar    1  LIG1        0.0037
      6 C           0.4548    1.0660    0.0000 C.ar    1  LIG1       -0.0459
      7 C          -0.2597    0.6535    0.0000 C.ar    1  LIG1        0.0209
      8 C          -0.9742    1.0660    0.0000 C.ar    1  LIG1       -0.0312
      9 C          -1.6887    0.6535    0.0000 C.ar    1  LIG1        0.0507
     10 N          -1.6887   -0.1715    0.0000 N.ar    1  LIG1       -0.1557
     11 N          -0.9742   -0.5840    0.0000 N.ar    1  LIG1       -0.1308
     12 C          -0.2597   -0.1715    0.0000 C.ar    1  LIG1        0.1654
     13 H           1.5294   -1.7895    0.0000 H       1  LIG1        0.0457
     14 H          -0.1037   -1.8037   -0.9121 H       1  LIG1        0.0457
     15 H          -0.0754   -1.7837    0.9370 H       1  LIG1        0.0457
     16 H           2.1231    1.2042    0.0000 H       1  LIG1        0.0672
     17 H           0.4548    2.1675    0.0000 H       1  LIG1        0.0626
     18 H          -0.9742    2.1675    0.0000 H       1  LIG1        0.0640
     19 H          -2.6426    1.2043    0.0000 H       1  LIG1        0.0848
@<TRIPOS>BOND
     1     1     2    1
     2     2     3   ar
     3     3     4    2
     4     3     5   ar
     5     5     6   ar
     6     6     7   ar
     7     7     8   ar
     8     8     9   ar
     9     9    10   ar
    10    10    11   ar
    11    11    12   ar
    12     2    12   ar
    13     7    12   ar
    14     1    13    1
    15     1    14    1
    16     1    15    1
    17     5    16    1
    18     6    17    1
    19     8    18    1
    20     9    19    1
