@<TRIPOS>MOLECULE
c1cn2nncc2s1
 11 12 0 0 0
SMALL
GASTEIGER
Energy = 0

@<TRIPOS>ATOM
      1 S           0.6893   -0.5755    0.0000 S.2     1  LIG1       -0.0746
      2 C           1.1743    0.0920    0.0000 C.ar    1  LIG1       -0.0041
      3 C           0.6893    0.7594    0.0000 C.ar    1  LIG1        0.0386
      4 N          -0.0953    0.5045    0.0000 N.ar    1  LIG1       -0.2129
      5 N          -0.8799    0.7594    0.0000 N.ar    1  LIG1       -0.0603
      6 N          -1.3648    0.0920    0.0000 N.ar    1  LIG1       -0.1364
      7 C          -0.8799   -0.5755    0.0000 C.ar    1  LIG1        0.0837
      8 C          -0.0953   -0.3205    0.0000 C.ar    1  LIG1        0.1240
      9 H           2.2758    0.0920    0.0000 H       1  LIG1        0.0709
     10 H           1.0296    1.8070    0.0000 H       1  LIG1        0.0836
     11 H          -1.2203   -1.6231    0.0000 H       1  LIG1        0.0876
@<TRIPOS>BOND
     1     1     2   ar
     2     2     3   ar
     3     3     4   ar
     4     4     5   ar
     5     5     6   ar
     6     6     7   ar
     7     7     8   ar
     8     1     8   ar
     9     4     8   ar
    10     2     9    1
    11     3    10    1
    12     7    11    1
