@<TRIPOS>MOLECULE
O=c1ccn2cnncc2c1
 16 17 0 0 0
SMALL
GASTEIGER
Energy = 0

@<TRIPOS>ATOM
      1 O           1.9422   -0.7379    0.0000 O.2     1  LIG1       -0.2878
      2 C           1.2277   -0.3254    0.0000 C.ar    1  LIG1        0.1824
      3 C           1.2277    0.4996    0.0000 C.ar    1  LIG1        0.0017
      4 C           0.5133    0.9121    0.0000 C.ar    1  LIG1        0.0149
      5 N          -0.2012    0.4996    0.0000 N.ar    1  LIG1       -0.3041
      6 C          -0.9157    0.9121    0.0000 C.ar    1  LIG1        0.1230
      7 N          -1.6301    0.4996    0.0000 N.ar    1  LIG1       -0.1392
      8 N          -1.6301   -0.3254    0.0000 N.ar    1  LIG1       -0.1542
      9 C          -0.9157   -0.7379    0.0000 C.ar    1  LIG1        0.0739
     10 C          -0.2012   -0.3254    0.0000 C.ar    1  LIG1        0.0708
     11 C           0.5133   -0.7379    0.0000 C.ar    1  LIG1        0.0105
     12 H           2.1816    1.0503    0.0000 H       1  LIG1        0.0670
     13 H           0.5133    2.0136    0.0000 H       1  LIG1        0.0814
     14 H          -0.9157    2.0136    0.0000 H       1  LIG1        0.1051
     15 H          -0.9157   -1.8394    0.0000 H       1  LIG1        0.0869
     16 H           0.5133   -1.8394    0.0000 H       1  LIG1        0.0677
@<TRIPOS>BOND
     1     1     2    2
     2     2     3   ar
     3     3     4   ar
     4     4     5   ar
     5     5     6   ar
     6     6     7   ar
     7     7     8   ar
     8     8     9   ar
     9     9    10   ar
    10     5    10   ar
    11    10    11   ar
    12     2    11   ar
    13     3    12    1
    14     4    13    1
    15     6    14    1
    16     9    15    1
    17    11    16    1
