@<TRIPOS>MOLECULE
c1cc2c[nH]ccc2n1
 15 16 0 0 0
SMALL
GASTEIGER
Energy = 0

@<TRIPOS>ATOM
      1 N           1.2623   -0.4170    0.0000 N.ar    1  LIG1       -0.3663
      2 C           1.2623    0.4080    0.0000 C.ar    1  LIG1        0.0036
      3 C           0.5478    0.8205    0.0000 C.ar    1  LIG1       -0.0198
      4 C          -0.1666    0.4080    0.0000 C.ar    1  LIG1        0.0737
      5 N          -0.9513    0.6629    0.0000 N.ar    1  LIG1       -0.2549
      6 C          -1.4362   -0.0045    0.0000 C.ar    1  LIG1        0.0289
      7 C          -0.9513   -0.6720    0.0000 C.ar    1  LIG1       -0.0331
      8 C          -0.1666   -0.4170    0.0000 C.ar    1  LIG1        0.0177
      9 C           0.5478   -0.8295    0.0000 C.ar    1  LIG1        0.0109
     10 H           2.1998   -0.9583    0.0000 H       1  LIG1        0.1648
     11 H           2.2162    0.9588    0.0000 H       1  LIG1        0.0807
     12 H           0.5478    1.9220    0.0000 H       1  LIG1        0.0653
     13 H          -2.5377   -0.0045    0.0000 H       1  LIG1        0.0830
     14 H          -1.2917   -1.7196    0.0000 H       1  LIG1        0.0640
     15 H           0.5478   -1.9310    0.0000 H       1  LIG1        0.0813
@<TRIPOS>BOND
     1     1     2   ar
     2     2     3   ar
     3     3     4   ar
     4     4     5   ar
     5     5     6   ar
     6     6     7   ar
     7     7     8   ar
     8     4     8   ar
     9     8     9   ar
    10     1     9   ar
    11     1    10    1
    12     2    11    1
    13     3    12    1
    14     6    13    1
    15     7    14    1
    16     9    15    1
