@<TRIPOS>MOLECULE
Cn1cc2cc[nH]c2cc1=O
 19 20 0 0 0
SMALL
GASTEIGER
Energy = 0

@<TRIPOS>ATOM
      1 C           1.5816    0.8521    0.0000 C.3     1  LIG1        0.0147
      2 N           0.8671    0.4396    0.0000 N.ar    1  LIG1       -0.3176
      3 C           0.1526    0.8521    0.0000 C.ar    1  LIG1        0.0167
      4 C          -0.5619    0.4396    0.0000 C.ar    1  LIG1        0.0160
      5 C          -1.3465    0.6946    0.0000 C.ar    1  LIG1       -0.0353
      6 C          -1.8314    0.0271    0.0000 C.ar    1  LIG1        0.0028
      7 N          -1.3465   -0.6403    0.0000 N.ar    1  LIG1       -0.3605
      8 C          -0.5619   -0.3854    0.0000 C.ar    1  LIG1        0.0530
      9 C           0.1526   -0.7979    0.0000 C.ar    1  LIG1        0.0269
     10 C           0.8671   -0.3854    0.0000 C.ar    1  LIG1        0.2530
     11 O           1.5816   -0.7979    0.0000 O.2     1  LIG1       -0.2676
     12 H           1.3739    1.9730    0.0000 H       1  LIG1        0.0457
     13 H           2.2026    0.5658   -0.9121 H       1  LIG1        0.0457
     14 H           2.1713    0.5803    0.9370 H       1  LIG1        0.0457
     15 H           0.1526    1.9536    0.0000 H       1  LIG1        0.0816
     16 H          -1.6869    1.7422    0.0000 H       1  LIG1        0.0639
     17 H          -2.9329    0.0271    0.0000 H       1  LIG1        0.0807
     18 H          -1.6810   -1.6698    0.0000 H       1  LIG1        0.1653
     19 H           0.1526   -1.8994    0.0000 H       1  LIG1        0.0693
@<TRIPOS>BOND
     1     1     2    1
     2     2     3   ar
     3     3     4   ar
     4     4     5   ar
     5     5     6   ar
     6     6     7   ar
     7     7     8   ar
     8     4     8   ar
     9     8     9   ar
    10     9    10   ar
    11     2    10   ar
    12    10    11    2
    13     1    12    1
    14     1    13    1
    15     1    14    1
    16     3    15    1
    17     5    16    1
    18     6    17    1
    19     7    18    1
    20     9    19    1
