@<TRIPOS>MOLECULE
c1cc2nnnc2c[nH]1
 13 14 0 0 0
SMALL
GASTEIGER
Energy = 0

@<TRIPOS>ATOM
      1 N           1.3034   -0.4054    0.0000 N.ar    1  LIG1       -0.3651
      2 C           1.3034    0.4196    0.0000 C.ar    1  LIG1        0.0038
      3 C           0.5889    0.8321    0.0000 C.ar    1  LIG1       -0.0163
      4 C          -0.1256    0.4196    0.0000 C.ar    1  LIG1        0.1177
      5 N          -0.9102    0.6745    0.0000 N.ar    1  LIG1       -0.1277
      6 N          -1.3951    0.0071    0.0000 N.ar    1  LIG1       -0.0421
      7 N          -0.9102   -0.6603    0.0000 N.ar    1  LIG1       -0.1263
      8 C          -0.1256   -0.4054    0.0000 C.ar    1  LIG1        0.1308
      9 C           0.5889   -0.8179    0.0000 C.ar    1  LIG1        0.0313
     10 H           2.2409   -0.9467    0.0000 H       1  LIG1        0.1648
     11 H           2.2573    0.9704    0.0000 H       1  LIG1        0.0807
     12 H           0.5889    1.9336    0.0000 H       1  LIG1        0.0654
     13 H           0.5889   -1.9194    0.0000 H       1  LIG1        0.0830
@<TRIPOS>BOND
     1     1     2   ar
     2     2     3   ar
     3     3     4   ar
     4     4     5   ar
     5     5     6   ar
     6     6     7   ar
     7     7     8   ar
     8     4     8   ar
     9     8     9   ar
    10     1     9   ar
    11     1    10    1
    12     2    11    1
    13     3    12    1
    14     9    13    1
