@<TRIPOS>MOLECULE
c1cnc2ccncc2c1
 16 17 0 0 0
SMALL
GASTEIGER
Energy = 0

@<TRIPOS>ATOM
      1 C           1.4404   -0.4191    0.0000 C.ar    1  LIG1       -0.0430
      2 C           1.4404    0.4059    0.0000 C.ar    1  LIG1        0.0283
      3 N           0.7260    0.8184    0.0000 N.ar    1  LIG1       -0.2549
      4 C           0.0115    0.4059    0.0000 C.ar    1  LIG1        0.0738
      5 C          -0.7030    0.8184    0.0000 C.ar    1  LIG1       -0.0176
      6 C          -1.4175    0.4059    0.0000 C.ar    1  LIG1        0.0296
      7 N          -1.4175   -0.4191    0.0000 N.ar    1  LIG1       -0.2625
      8 C          -0.7030   -0.8316    0.0000 C.ar    1  LIG1        0.0367
      9 C           0.0115   -0.4191    0.0000 C.ar    1  LIG1        0.0185
     10 C           0.7260   -0.8316    0.0000 C.ar    1  LIG1       -0.0497
     11 H           2.3943   -0.9698    0.0000 H       1  LIG1        0.0633
     12 H           2.3943    0.9566    0.0000 H       1  LIG1        0.0830
     13 H          -0.7030    1.9199    0.0000 H       1  LIG1        0.0654
     14 H          -2.3714    0.9567    0.0000 H       1  LIG1        0.0830
     15 H          -0.7030   -1.9331    0.0000 H       1  LIG1        0.0836
     16 H           0.7260   -1.9331    0.0000 H       1  LIG1        0.0625
@<TRIPOS>BOND
     1     1     2   ar
     2     2     3   ar
     3     3     4   ar
     4     4     5   ar
     5     5     6   ar
     6     6     7   ar
     7     7     8   ar
     8     8     9   ar
     9     4     9   ar
    10     9    10   ar
    11     1    10   ar
    12     1    11    1
    13     2    12    1
    14     5    13    1
    15     6    14    1
    16     8    15    1
    17    10    16    1
