@<TRIPOS>MOLECULE
O=c1[nH]ncc2ncccc12
 16 17 0 0 0
SMALL
GASTEIGER
Energy = 0

@<TRIPOS>ATOM
      1 O           0.6039   -1.4758    0.0000 O.2     1  LIG1       -0.2657
      2 C           0.6039   -0.6508    0.0000 C.ar    1  LIG1        0.2739
      3 N           1.3184   -0.2383    0.0000 N.ar    1  LIG1       -0.2426
      4 N           1.3184    0.5867    0.0000 N.ar    1  LIG1       -0.1772
      5 C           0.6039    0.9992    0.0000 C.ar    1  LIG1        0.0739
      6 C          -0.1106    0.5867    0.0000 C.ar    1  LIG1        0.0959
      7 N          -0.8250    0.9992    0.0000 N.ar    1  LIG1       -0.2532
      8 C          -1.5395    0.5867    0.0000 C.ar    1  LIG1        0.0283
      9 C          -1.5395   -0.2383    0.0000 C.ar    1  LIG1       -0.0428
     10 C          -0.8250   -0.6508    0.0000 C.ar    1  LIG1       -0.0458
     11 C          -0.1106   -0.2383    0.0000 C.ar    1  LIG1        0.0676
     12 H           2.2559   -0.7796    0.0000 H       1  LIG1        0.1921
     13 H           0.6039    2.1007    0.0000 H       1  LIG1        0.0869
     14 H          -2.4934    1.1375    0.0000 H       1  LIG1        0.0830
     15 H          -2.4934   -0.7891    0.0000 H       1  LIG1        0.0633
     16 H          -0.8250   -1.7523    0.0000 H       1  LIG1        0.0626
@<TRIPOS>BOND
     1     1     2    2
     2     2     3   ar
     3     3     4   ar
     4     4     5   ar
     5     5     6   ar
     6     6     7   ar
     7     7     8   ar
     8     8     9   ar
     9     9    10   ar
    10    10    11   ar
    11     2    11   ar
    12     6    11   ar
    13     3    12    1
    14     5    13    1
    15     8    14    1
    16     9    15    1
    17    10    16    1
