@<TRIPOS>MOLECULE
c1nc2nnncc2[nH]1
 12 13 0 0 0
SMALL
GASTEIGER
Energy = 0

@<TRIPOS>ATOM
      1 N           0.9658   -0.6814    0.0000 N.ar    1  LIG1       -0.3418
      2 C           1.4507   -0.0139    0.0000 C.ar    1  LIG1        0.0963
      3 N           0.9658    0.6535    0.0000 N.ar    1  LIG1       -0.2150
      4 C           0.1812    0.3986    0.0000 C.ar    1  LIG1        0.2027
      5 N          -0.5333    0.8111    0.0000 N.ar    1  LIG1       -0.1076
      6 N          -1.2478    0.3986    0.0000 N.ar    1  LIG1       -0.0412
      7 N          -1.2478   -0.4264    0.0000 N.ar    1  LIG1       -0.1356
      8 C          -0.5333   -0.8389    0.0000 C.ar    1  LIG1        0.0786
      9 C           0.1812   -0.4264    0.0000 C.ar    1  LIG1        0.1069
     10 H           1.3003   -1.7109    0.0000 H       1  LIG1        0.1669
     11 H           2.5522   -0.0139    0.0000 H       1  LIG1        0.1027
     12 H          -0.5333   -1.9404    0.0000 H       1  LIG1        0.0871
@<TRIPOS>BOND
     1     1     2   ar
     2     2     3   ar
     3     3     4   ar
     4     4     5   ar
     5     5     6   ar
     6     6     7   ar
     7     7     8   ar
     8     8     9   ar
     9     1     9   ar
    10     4     9   ar
    11     1    10    1
    12     2    11    1
    13     8    12    1
