@<TRIPOS>MOLECULE
O=c1ccc2[nH]ncc2[nH]1
 15 16 0 0 0
SMALL
GASTEIGER
Energy = 0

@<TRIPOS>ATOM
      1 O          -1.7666    0.7211    0.0000 O.2     1  LIG1       -0.2679
      2 C          -1.0522    0.3086    0.0000 C.ar    1  LIG1        0.2493
      3 N          -0.3377    0.7211    0.0000 N.ar    1  LIG1       -0.3196
      4 C           0.3768    0.3086    0.0000 C.ar    1  LIG1        0.0869
      5 C           0.3768   -0.5164    0.0000 C.ar    1  LIG1        0.0821
      6 N           1.1614   -0.7713    0.0000 N.ar    1  LIG1       -0.2755
      7 N           1.6463   -0.1039    0.0000 N.ar    1  LIG1       -0.1797
      8 C           1.1614    0.5636    0.0000 C.ar    1  LIG1        0.0731
      9 C          -0.3377   -0.9289    0.0000 C.ar    1  LIG1       -0.0297
     10 C          -1.0522   -0.5164    0.0000 C.ar    1  LIG1        0.0048
     11 H          -0.3377    1.8036    0.0000 H       1  LIG1        0.1690
     12 H           1.4959   -1.8008    0.0000 H       1  LIG1        0.1890
     13 H           1.5018    1.6112    0.0000 H       1  LIG1        0.0869
     14 H          -0.3377   -2.0304    0.0000 H       1  LIG1        0.0641
     15 H          -2.0061   -1.0672    0.0000 H       1  LIG1        0.0672
@<TRIPOS>BOND
     1     1     2    2
     2     2     3   ar
     3     3     4   ar
     4     4     5   ar
     5     5     6   ar
     6     6     7   ar
     7     7     8   ar
     8     4     8   ar
     9     5     9   ar
    10     9    10   ar
    11     2    10   ar
    12     3    11    1
    13     6    12    1
    14     8    13    1
    15     9    14    1
    16    10    15    1
