@<TRIPOS>MOLECULE
c1nsc2ncncc12
 12 13 0 0 0
SMALL
GASTEIGER
Energy = 0

@<TRIPOS>ATOM
      1 S           0.8100   -0.5615    0.0000 S.2     1  LIG1        0.0317
      2 N           1.2949    0.1059    0.0000 N.ar    1  LIG1       -0.2160
      3 C           0.8100    0.7734    0.0000 C.ar    1  LIG1        0.0474
      4 C           0.0253    0.5184    0.0000 C.ar    1  LIG1        0.0454
      5 C          -0.6891    0.9309    0.0000 C.ar    1  LIG1        0.0405
      6 N          -1.4036    0.5184    0.0000 N.ar    1  LIG1       -0.2430
      7 C          -1.4036   -0.3066    0.0000 C.ar    1  LIG1        0.1172
      8 N          -0.6891   -0.7191    0.0000 N.ar    1  LIG1       -0.2268
      9 C           0.0253   -0.3066    0.0000 C.ar    1  LIG1        0.1308
     10 H           1.1504    1.8210    0.0000 H       1  LIG1        0.0844
     11 H          -0.6891    2.0324    0.0000 H       1  LIG1        0.0837
     12 H          -2.3575   -0.8574    0.0000 H       1  LIG1        0.1047
@<TRIPOS>BOND
     1     1     2   ar
     2     2     3   ar
     3     3     4   ar
     4     4     5   ar
     5     5     6   ar
     6     6     7   ar
     7     7     8   ar
     8     8     9   ar
     9     1     9   ar
    10     4     9   ar
    11     3    10    1
    12     5    11    1
    13     7    12    1
