@<TRIPOS>MOLECULE
O=c1nc2[nH]cccc2c(=O)[nH]1
 17 18 0 0 0
SMALL
GASTEIGER
Energy = 0

@<TRIPOS>ATOM
      1 O           1.8361   -0.8929    0.0000 O.2     1  LIG1       -0.2446
      2 C           1.1217   -0.4804    0.0000 C.ar    1  LIG1        0.3504
      3 N           1.1217    0.3446    0.0000 N.ar    1  LIG1       -0.2729
      4 C           0.4072    0.7571    0.0000 C.ar    1  LIG1        0.2633
      5 O           0.4072    1.5821    0.0000 O.2     1  LIG1       -0.2670
      6 C          -0.3073    0.3446    0.0000 C.ar    1  LIG1        0.0818
      7 C          -1.0217    0.7571    0.0000 C.ar    1  LIG1       -0.0445
      8 C          -1.7362    0.3446    0.0000 C.ar    1  LIG1       -0.0449
      9 C          -1.7362   -0.4804    0.0000 C.ar    1  LIG1        0.0035
     10 N          -1.0217   -0.8929    0.0000 N.ar    1  LIG1       -0.3456
     11 C          -0.3073   -0.4804    0.0000 C.ar    1  LIG1        0.1488
     12 N           0.4072   -0.8929    0.0000 N.ar    1  LIG1       -0.1751
     13 H           2.0592    0.8859    0.0000 H       1  LIG1        0.1735
     14 H          -1.0217    1.8586    0.0000 H       1  LIG1        0.0627
     15 H          -2.6901    0.8954    0.0000 H       1  LIG1        0.0632
     16 H          -2.6901   -1.0312    0.0000 H       1  LIG1        0.0807
     17 H          -1.0217   -1.9754    0.0000 H       1  LIG1        0.1668
@<TRIPOS>BOND
     1     1     2    2
     2     2     3   ar
     3     3     4   ar
     4     4     5    2
     5     4     6   ar
     6     6     7   ar
     7     7     8   ar
     8     8     9   ar
     9     9    10   ar
    10    10    11   ar
    11     6    11   ar
    12    11    12   ar
    13     2    12   ar
    14     3    13    1
    15     7    14    1
    16     8    15    1
    17     9    16    1
    18    10    17    1
