@<TRIPOS>MOLECULE
Cn1ncc2nccnc2c1=O
 18 19 0 0 0
SMALL
GASTEIGER
Energy = 0

@<TRIPOS>ATOM
      1 C           1.8870   -0.5924    0.0000 C.3     1  LIG1        0.0340
      2 N           1.1725   -0.1799    0.0000 N.ar    1  LIG1       -0.2308
      3 N           1.1725    0.6451    0.0000 N.ar    1  LIG1       -0.1747
      4 C           0.4581    1.0576    0.0000 C.ar    1  LIG1        0.0756
      5 C          -0.2564    0.6451    0.0000 C.ar    1  LIG1        0.1142
      6 N          -0.9709    1.0576    0.0000 N.ar    1  LIG1       -0.2502
      7 C          -1.6854    0.6451    0.0000 C.ar    1  LIG1        0.0464
      8 C          -1.6854   -0.1799    0.0000 C.ar    1  LIG1        0.0466
      9 N          -0.9709   -0.5924    0.0000 N.ar    1  LIG1       -0.2464
     10 C          -0.2564   -0.1799    0.0000 C.ar    1  LIG1        0.1563
     11 C           0.4581   -0.5924    0.0000 C.ar    1  LIG1        0.2946
     12 O           0.4581   -1.4174    0.0000 O.2     1  LIG1       -0.2638
     13 H           2.7538    0.1480    0.0000 H       1  LIG1        0.0474
     14 H           1.9496   -1.2734   -0.9121 H       1  LIG1        0.0474
     15 H           1.9464   -1.2390    0.9370 H       1  LIG1        0.0474
     16 H           0.4581    2.1591    0.0000 H       1  LIG1        0.0870
     17 H          -2.6393    1.1959    0.0000 H       1  LIG1        0.0845
     18 H          -2.6393   -0.7307    0.0000 H       1  LIG1        0.0845
@<TRIPOS>BOND
     1     1     2    1
     2     2     3   ar
     3     3     4   ar
     4     4     5   ar
     5     5     6   ar
     6     6     7   ar
     7     7     8   ar
     8     8     9   ar
     9     9    10   ar
    10     5    10   ar
    11    10    11   ar
    12     2    11   ar
    13    11    12    2
    14     1    13    1
    15     1    14    1
    16     1    15    1
    17     4    16    1
    18     7    17    1
    19     8    18    1
