@<TRIPOS>MOLECULE
O=c1[nH]nc2c(=O)[nH]ccn12
 15 16 0 0 0
SMALL
GASTEIGER
Energy = 0

@<TRIPOS>ATOM
      1 O           1.1135   -1.4824    0.0000 O.2     1  LIG1       -0.2446
      2 C           0.8585   -0.6978    0.0000 C.ar    1  LIG1        0.3486
      3 N           1.3434   -0.0304    0.0000 N.ar    1  LIG1       -0.2258
      4 N           0.8585    0.6371    0.0000 N.ar    1  LIG1       -0.1458
      5 C           0.0739    0.3821    0.0000 C.ar    1  LIG1        0.2264
      6 N           0.0739   -0.4429    0.0000 N.ar    1  LIG1       -0.2452
      7 C          -0.6406   -0.8554    0.0000 C.ar    1  LIG1        0.0323
      8 C          -1.3550   -0.4429    0.0000 C.ar    1  LIG1        0.0217
      9 N          -1.3550    0.3821    0.0000 N.ar    1  LIG1       -0.3247
     10 C          -0.6406    0.7946    0.0000 C.ar    1  LIG1        0.2936
     11 O          -0.6406    1.6196    0.0000 O.2     1  LIG1       -0.2638
     12 H           2.4259   -0.0304    0.0000 H       1  LIG1        0.1937
     13 H          -0.6406   -1.9569    0.0000 H       1  LIG1        0.0829
     14 H          -2.3089   -0.9936    0.0000 H       1  LIG1        0.0823
     15 H          -2.2925    0.9233    0.0000 H       1  LIG1        0.1685
@<TRIPOS>BOND
     1     1     2    2
     2     2     3   ar
     3     3     4   ar
     4     4     5   ar
     5     5     6   ar
     6     2     6   ar
     7     6     7   ar
     8     7     8   ar
     9     8     9   ar
    10     9    10   ar
    11     5    10   ar
    12    10    11    2
    13     3    12    1
    14     7    13    1
    15     8    14    1
    16     9    15    1
