@<TRIPOS>MOLECULE
Cn1cnc2nncc2c1
 16 17 0 0 0
SMALL
GASTEIGER
Energy = 0

@<TRIPOS>ATOM
      1 C           1.8053   -0.7645    0.0000 C.3     1  LIG1        0.0127
      2 N           1.0908   -0.3520    0.0000 N.ar    1  LIG1       -0.3405
      3 C           1.0908    0.4730    0.0000 C.ar    1  LIG1        0.0981
      4 N           0.3763    0.8855    0.0000 N.ar    1  LIG1       -0.2161
      5 C          -0.3381    0.4730    0.0000 C.ar    1  LIG1        0.1861
      6 N          -1.1228    0.7280    0.0000 N.ar    1  LIG1       -0.1290
      7 N          -1.6077    0.0605    0.0000 N.ar    1  LIG1       -0.1549
      8 C          -1.1228   -0.6069    0.0000 C.ar    1  LIG1        0.0621
      9 C          -0.3381   -0.3520    0.0000 C.ar    1  LIG1        0.0568
     10 C           0.3763   -0.7645    0.0000 C.ar    1  LIG1        0.0178
     11 H           2.6721   -0.0241    0.0000 H       1  LIG1        0.0456
     12 H           1.8679   -1.4455   -0.9121 H       1  LIG1        0.0456
     13 H           1.8647   -1.4111    0.9370 H       1  LIG1        0.0456
     14 H           2.0447    1.0238    0.0000 H       1  LIG1        0.1029
     15 H          -1.4632   -1.6545    0.0000 H       1  LIG1        0.0856
     16 H           0.3763   -1.8660    0.0000 H       1  LIG1        0.0817
@<TRIPOS>BOND
     1     1     2    1
     2     2     3   ar
     3     3     4   ar
     4     4     5   ar
     5     5     6   ar
     6     6     7   ar
     7     7     8   ar
     8     8     9   ar
     9     5     9   ar
    10     9    10   ar
    11     2    10   ar
    12     1    11    1
    13     1    12    1
    14     1    13    1
    15     3    14    1
    16     8    15    1
    17    10    16    1
