@<TRIPOS>MOLECULE
Cn1ncc2scnc12
 14 15 0 0 0
SMALL
GASTEIGER
Energy = 0

@<TRIPOS>ATOM
      1 C           1.0449   -1.4020    0.0000 C.3     1  LIG1        0.0324
      2 N           0.7900   -0.6173    0.0000 N.ar    1  LIG1       -0.2491
      3 N           1.2749    0.0501    0.0000 N.ar    1  LIG1       -0.1769
      4 C           0.7900    0.7175    0.0000 C.ar    1  LIG1        0.0653
      5 C           0.0053    0.4626    0.0000 C.ar    1  LIG1        0.0770
      6 C           0.0053   -0.3624    0.0000 C.ar    1  LIG1        0.1652
      7 N          -0.7793   -0.6173    0.0000 N.ar    1  LIG1       -0.2283
      8 C          -1.2642    0.0501    0.0000 C.ar    1  LIG1        0.0677
      9 S          -0.7793    0.7175    0.0000 S.2     1  LIG1       -0.0722
     10 H           2.1845   -1.4319    0.0000 H       1  LIG1        0.0473
     11 H           0.6357   -1.9499   -0.9121 H       1  LIG1        0.0473
     12 H           0.6564   -1.9222    0.9370 H       1  LIG1        0.0473
     13 H           1.1304    1.7651    0.0000 H       1  LIG1        0.0860
     14 H          -2.3657    0.0501    0.0000 H       1  LIG1        0.0908
@<TRIPOS>BOND
     1     1     2    1
     2     2     3   ar
     3     3     4   ar
     4     4     5   ar
     5     5     6   ar
     6     2     6   ar
     7     6     7   ar
     8     7     8   ar
     9     8     9   ar
    10     5     9   ar
    11     1    10    1
    12     1    11    1
    13     1    12    1
    14     4    13    1
    15     8    14    1
