@<TRIPOS>MOLECULE
Cn1ccn2ncc(=O)nc12
 17 18 0 0 0
SMALL
GASTEIGER
Energy = 0

@<TRIPOS>ATOM
      1 C           1.3205   -1.2359    0.0000 C.3     1  LIG1        0.0147
      2 N           1.0656   -0.4513    0.0000 N.ar    1  LIG1       -0.3183
      3 C           1.5505    0.2162    0.0000 C.ar    1  LIG1        0.0258
      4 C           1.0656    0.8836    0.0000 C.ar    1  LIG1        0.0490
      5 N           0.2810    0.6287    0.0000 N.ar    1  LIG1       -0.2054
      6 N          -0.4335    1.0412    0.0000 N.ar    1  LIG1       -0.1668
      7 C          -1.1480    0.6287    0.0000 C.ar    1  LIG1        0.1146
      8 C          -1.1480   -0.1963    0.0000 C.ar    1  LIG1        0.2931
      9 O          -1.8624   -0.6088    0.0000 O.2     1  LIG1       -0.2641
     10 N          -0.4335   -0.6088    0.0000 N.ar    1  LIG1       -0.1718
     11 C           0.2810   -0.1963    0.0000 C.ar    1  LIG1        0.2348
     12 H           2.4601   -1.2658    0.0000 H       1  LIG1        0.0457
     13 H           0.9113   -1.7838   -0.9121 H       1  LIG1        0.0457
     14 H           0.9320   -1.7561    0.9370 H       1  LIG1        0.0457
     15 H           2.6520    0.2162    0.0000 H       1  LIG1        0.0825
     16 H           1.4060    1.9312    0.0000 H       1  LIG1        0.0846
     17 H          -2.1019    1.1795    0.0000 H       1  LIG1        0.0904
@<TRIPOS>BOND
     1     1     2    1
     2     2     3   ar
     3     3     4   ar
     4     4     5   ar
     5     5     6   ar
     6     6     7   ar
     7     7     8   ar
     8     8     9    2
     9     8    10   ar
    10    10    11   ar
    11     2    11   ar
    12     5    11   ar
    13     1    12    1
    14     1    13    1
    15     1    14    1
    16     3    15    1
    17     4    16    1
    18     7    17    1
