@<TRIPOS>MOLECULE
Cn1ccc2nncc2c1
 17 18 0 0 0
SMALL
GASTEIGER
Energy = 0

@<TRIPOS>ATOM
      1 C           1.8112   -0.7505    0.0000 C.3     1  LIG1        0.0113
      2 N           1.0967   -0.3380    0.0000 N.ar    1  LIG1       -0.3555
      3 C           1.0967    0.4870    0.0000 C.ar    1  LIG1        0.0063
      4 C           0.3823    0.8995    0.0000 C.ar    1  LIG1       -0.0177
      5 C          -0.3322    0.4870    0.0000 C.ar    1  LIG1        0.0975
      6 N          -1.1168    0.7420    0.0000 N.ar    1  LIG1       -0.1491
      7 N          -1.6017    0.0745    0.0000 N.ar    1  LIG1       -0.1564
      8 C          -1.1168   -0.5929    0.0000 C.ar    1  LIG1        0.0605
      9 C          -0.3322   -0.3380    0.0000 C.ar    1  LIG1        0.0380
     10 C           0.3823   -0.7505    0.0000 C.ar    1  LIG1        0.0150
     11 H           2.6780   -0.0101    0.0000 H       1  LIG1        0.0455
     12 H           1.8738   -1.4315   -0.9121 H       1  LIG1        0.0455
     13 H           1.8706   -1.3971    0.9370 H       1  LIG1        0.0455
     14 H           2.0506    1.0377    0.0000 H       1  LIG1        0.0809
     15 H           0.3823    2.0010    0.0000 H       1  LIG1        0.0654
     16 H          -1.4572   -1.6405    0.0000 H       1  LIG1        0.0855
     17 H           0.3823   -1.8520    0.0000 H       1  LIG1        0.0816
@<TRIPOS>BOND
     1     1     2    1
     2     2     3   ar
     3     3     4   ar
     4     4     5   ar
     5     5     6   ar
     6     6     7   ar
     7     7     8   ar
     8     8     9   ar
     9     5     9   ar
    10     9    10   ar
    11     2    10   ar
    12     1    11    1
    13     1    12    1
    14     1    13    1
    15     3    14    1
    16     4    15    1
    17     8    16    1
    18    10    17    1
