@<TRIPOS>MOLECULE
Cn1c(=O)cnc2ncncc12
 18 19 0 0 0
SMALL
GASTEIGER
Energy = 0

@<TRIPOS>ATOM
      1 C           0.4489   -1.4438    0.0000 C.3     1  LIG1        0.0155
      2 N           0.4489   -0.6188    0.0000 N.ar    1  LIG1       -0.3061
      3 C           1.1634   -0.2063    0.0000 C.ar    1  LIG1        0.2698
      4 O           1.8779   -0.6188    0.0000 O.2     1  LIG1       -0.2660
      5 C           1.1634    0.6187    0.0000 C.ar    1  LIG1        0.0944
      6 N           0.4489    1.0312    0.0000 N.ar    1  LIG1       -0.2290
      7 C          -0.2655    0.6187    0.0000 C.ar    1  LIG1        0.1796
      8 N          -0.9800    1.0312    0.0000 N.ar    1  LIG1       -0.2146
      9 C          -1.6945    0.6187    0.0000 C.ar    1  LIG1        0.1184
     10 N          -1.6945   -0.2063    0.0000 N.ar    1  LIG1       -0.2415
     11 C          -0.9800   -0.6188    0.0000 C.ar    1  LIG1        0.0565
     12 C          -0.2655   -0.2063    0.0000 C.ar    1  LIG1        0.1074
     13 H           1.5235   -1.8243    0.0000 H       1  LIG1        0.0457
     14 H          -0.1096   -1.8385   -0.9121 H       1  LIG1        0.0457
     15 H          -0.0813   -1.8185    0.9370 H       1  LIG1        0.0457
     16 H           2.1173    1.1695    0.0000 H       1  LIG1        0.0886
     17 H          -2.6484    1.1695    0.0000 H       1  LIG1        0.1047
     18 H          -0.9800   -1.7203    0.0000 H       1  LIG1        0.0852
@<TRIPOS>BOND
     1     1     2    1
     2     2     3   ar
     3     3     4    2
     4     3     5   ar
     5     5     6   ar
     6     6     7   ar
     7     7     8   ar
     8     8     9   ar
     9     9    10   ar
    10    10    11   ar
    11    11    12   ar
    12     2    12   ar
    13     7    12   ar
    14     1    13    1
    15     1    14    1
    16     1    15    1
    17     5    16    1
    18     9    17    1
    19    11    18    1
