@<TRIPOS>MOLECULE
Cn1ccc2ncnnc12
 16 17 0 0 0
SMALL
GASTEIGER
Energy = 0

@<TRIPOS>ATOM
      1 C           1.1102   -1.2991    0.0000 C.3     1  LIG1        0.0133
      2 N           0.8552   -0.5145    0.0000 N.ar    1  LIG1       -0.3323
      3 C           1.3402    0.1530    0.0000 C.ar    1  LIG1        0.0083
      4 C           0.8552    0.8204    0.0000 C.ar    1  LIG1       -0.0164
      5 C           0.0706    0.5655    0.0000 C.ar    1  LIG1        0.1111
      6 N          -0.6439    0.9780    0.0000 N.ar    1  LIG1       -0.2305
      7 C          -1.3583    0.5655    0.0000 C.ar    1  LIG1        0.1390
      8 N          -1.3583   -0.2595    0.0000 N.ar    1  LIG1       -0.1358
      9 N          -0.6439   -0.6720    0.0000 N.ar    1  LIG1       -0.1278
     10 C           0.0706   -0.2595    0.0000 C.ar    1  LIG1        0.1811
     11 H           2.2498   -1.3289    0.0000 H       1  LIG1        0.0456
     12 H           0.7011   -1.8471   -0.9121 H       1  LIG1        0.0456
     13 H           0.7217   -1.8194    0.9370 H       1  LIG1        0.0456
     14 H           2.4417    0.1530    0.0000 H       1  LIG1        0.0810
     15 H           1.1955    1.8680    0.0000 H       1  LIG1        0.0654
     16 H          -2.3122    1.1162    0.0000 H       1  LIG1        0.1066
@<TRIPOS>BOND
     1     1     2    1
     2     2     3   ar
     3     3     4   ar
     4     4     5   ar
     5     5     6   ar
     6     6     7   ar
     7     7     8   ar
     8     8     9   ar
     9     9    10   ar
    10     2    10   ar
    11     5    10   ar
    12     1    11    1
    13     1    12    1
    14     1    13    1
    15     3    14    1
    16     4    15    1
    17     7    16    1
