@<TRIPOS>MOLECULE
c1cnc2nccnc2c1
 15 16 0 0 0
SMALL
GASTEIGER
Energy = 0

@<TRIPOS>ATOM
      1 C           1.4403   -0.4256    0.0000 C.ar    1  LIG1       -0.0414
      2 C           1.4403    0.3994    0.0000 C.ar    1  LIG1        0.0301
      3 N           0.7258    0.8119    0.0000 N.ar    1  LIG1       -0.2344
      4 C           0.0113    0.3994    0.0000 C.ar    1  LIG1        0.1784
      5 N          -0.7032    0.8119    0.0000 N.ar    1  LIG1       -0.2329
      6 C          -1.4176    0.3994    0.0000 C.ar    1  LIG1        0.0481
      7 C          -1.4176   -0.4256    0.0000 C.ar    1  LIG1        0.0465
      8 N          -0.7032   -0.8381    0.0000 N.ar    1  LIG1       -0.2503
      9 C           0.0113   -0.4256    0.0000 C.ar    1  LIG1        0.1079
     10 C           0.7258   -0.8381    0.0000 C.ar    1  LIG1       -0.0312
     11 H           2.3942   -0.9764    0.0000 H       1  LIG1        0.0633
     12 H           2.3942    0.9502    0.0000 H       1  LIG1        0.0830
     13 H          -2.3715    0.9501    0.0000 H       1  LIG1        0.0846
     14 H          -2.3715   -0.9763    0.0000 H       1  LIG1        0.0845
     15 H           0.7258   -1.9396    0.0000 H       1  LIG1        0.0640
@<TRIPOS>BOND
     1     1     2   ar
     2     2     3   ar
     3     3     4   ar
     4     4     5   ar
     5     5     6   ar
     6     6     7   ar
     7     7     8   ar
     8     8     9   ar
     9     4     9   ar
    10     9    10   ar
    11     1    10   ar
    12     1    11    1
    13     2    12    1
    14     6    13    1
    15     7    14    1
    16    10    15    1
