@<TRIPOS>MOLECULE
Cn1ccc(=O)c2ccncc12
 20 21 0 0 0
SMALL
GASTEIGER
Energy = 0

@<TRIPOS>ATOM
      1 C           0.5923   -1.6770    0.0000 C.3     1  LIG1        0.0119
      2 N           0.5923   -0.8520    0.0000 N.ar    1  LIG1       -0.3483
      3 C           1.3068   -0.4395    0.0000 C.ar    1  LIG1        0.0085
      4 C           1.3068    0.3855    0.0000 C.ar    1  LIG1        0.0019
      5 C           0.5923    0.7980    0.0000 C.ar    1  LIG1        0.1895
      6 O           0.5923    1.6230    0.0000 O.2     1  LIG1       -0.2872
      7 C          -0.1222    0.3855    0.0000 C.ar    1  LIG1        0.0481
      8 C          -0.8367    0.7980    0.0000 C.ar    1  LIG1       -0.0308
      9 C          -1.5511    0.3855    0.0000 C.ar    1  LIG1        0.0284
     10 N          -1.5511   -0.4395    0.0000 N.ar    1  LIG1       -0.2612
     11 C          -0.8367   -0.8520    0.0000 C.ar    1  LIG1        0.0517
     12 C          -0.1222   -0.4395    0.0000 C.ar    1  LIG1        0.0708
     13 H           1.6669   -2.0575    0.0000 H       1  LIG1        0.0456
     14 H           0.0338   -2.0717   -0.9121 H       1  LIG1        0.0456
     15 H           0.0621   -2.0517    0.9370 H       1  LIG1        0.0456
     16 H           2.2607   -0.9903    0.0000 H       1  LIG1        0.0810
     17 H           2.2607    0.9363    0.0000 H       1  LIG1        0.0670
     18 H          -0.8367    1.8995    0.0000 H       1  LIG1        0.0640
     19 H          -2.5050    0.9362    0.0000 H       1  LIG1        0.0830
     20 H          -0.8367   -1.9535    0.0000 H       1  LIG1        0.0851
@<TRIPOS>BOND
     1     1     2    1
     2     2     3   ar
     3     3     4   ar
     4     4     5   ar
     5     5     6    2
     6     5     7   ar
     7     7     8   ar
     8     8     9   ar
     9     9    10   ar
    10    10    11   ar
    11    11    12   ar
    12     2    12   ar
    13     7    12   ar
    14     1    13    1
    15     1    14    1
    16     1    15    1
    17     3    16    1
    18     4    17    1
    19     8    18    1
    20     9    19    1
    21    11    20    1
