@<TRIPOS>MOLECULE
Cn1cnn2cncc2c1=O
 17 18 0 0 0
SMALL
GASTEIGER
Energy = 0

@<TRIPOS>ATOM
      1 C           1.7526   -0.5844    0.0000 C.3     1  LIG1        0.0162
      2 N           1.0381   -0.1719    0.0000 N.ar    1  LIG1       -0.2992
      3 C           1.0381    0.6531    0.0000 C.ar    1  LIG1        0.1194
      4 N           0.3237    1.0656    0.0000 N.ar    1  LIG1       -0.1551
      5 N          -0.3908    0.6531    0.0000 N.ar    1  LIG1       -0.2136
      6 C          -1.1754    0.9080    0.0000 C.ar    1  LIG1        0.1184
      7 N          -1.6603    0.2406    0.0000 N.ar    1  LIG1       -0.2414
      8 C          -1.1754   -0.4269    0.0000 C.ar    1  LIG1        0.0601
      9 C          -0.3908   -0.1719    0.0000 C.ar    1  LIG1        0.1494
     10 C           0.3237   -0.5844    0.0000 C.ar    1  LIG1        0.2793
     11 O           0.3237   -1.4094    0.0000 O.2     1  LIG1       -0.2653
     12 H           2.6194    0.1560    0.0000 H       1  LIG1        0.0457
     13 H           1.8152   -1.2654   -0.9121 H       1  LIG1        0.0457
     14 H           1.8120   -1.2310    0.9370 H       1  LIG1        0.0457
     15 H           1.9920    1.2038    0.0000 H       1  LIG1        0.1048
     16 H          -1.5158    1.9556    0.0000 H       1  LIG1        0.1047
     17 H          -1.5158   -1.4745    0.0000 H       1  LIG1        0.0853
@<TRIPOS>BOND
     1     1     2    1
     2     2     3   ar
     3     3     4   ar
     4     4     5   ar
     5     5     6   ar
     6     6     7   ar
     7     7     8   ar
     8     8     9   ar
     9     5     9   ar
    10     9    10   ar
    11     2    10   ar
    12    10    11    2
    13     1    12    1
    14     1    13    1
    15     1    14    1
    16     3    15    1
    17     6    16    1
    18     8    17    1
