@<TRIPOS>MOLECULE
Cn1cnc2ccc(=O)[nH]c12
 18 19 0 0 0
SMALL
GASTEIGER
Energy = 0

@<TRIPOS>ATOM
      1 C           1.3034   -1.2248    0.0000 C.3     1  LIG1        0.0146
      2 N           1.0485   -0.4402    0.0000 N.ar    1  LIG1       -0.3196
      3 C           1.5334    0.2272    0.0000 C.ar    1  LIG1        0.0979
      4 N           1.0485    0.8947    0.0000 N.ar    1  LIG1       -0.2342
      5 C           0.2639    0.6397    0.0000 C.ar    1  LIG1        0.1062
      6 C           0.2639   -0.1853    0.0000 C.ar    1  LIG1        0.1408
      7 N          -0.4506   -0.5978    0.0000 N.ar    1  LIG1       -0.3071
      8 C          -1.1651   -0.1853    0.0000 C.ar    1  LIG1        0.2503
      9 O          -1.8796   -0.5978    0.0000 O.2     1  LIG1       -0.2679
     10 C          -1.1651    0.6397    0.0000 C.ar    1  LIG1        0.0049
     11 C          -0.4506    1.0522    0.0000 C.ar    1  LIG1       -0.0276
     12 H           2.4430   -1.2547    0.0000 H       1  LIG1        0.0457
     13 H           0.8942   -1.7727   -0.9121 H       1  LIG1        0.0457
     14 H           0.9149   -1.7450    0.9370 H       1  LIG1        0.0457
     15 H           2.6349    0.2272    0.0000 H       1  LIG1        0.1029
     16 H          -0.4506   -1.6803    0.0000 H       1  LIG1        0.1703
     17 H          -2.1190    1.1905    0.0000 H       1  LIG1        0.0672
     18 H          -0.4506    2.1537    0.0000 H       1  LIG1        0.0642
@<TRIPOS>BOND
     1     1     2    1
     2     2     3   ar
     3     3     4   ar
     4     4     5   ar
     5     5     6   ar
     6     2     6   ar
     7     6     7   ar
     8     7     8   ar
     9     8     9    2
    10     8    10   ar
    11    10    11   ar
    12     5    11   ar
    13     1    12    1
    14     1    13    1
    15     1    14    1
    16     3    15    1
    17     7    16    1
    18    10    17    1
    19    11    18    1
