@<TRIPOS>MOLECULE
O=c1[nH]c2ccncc2[nH]1
 15 16 0 0 0
SMALL
GASTEIGER
Energy = 0

@<TRIPOS>ATOM
      1 O           1.9685    0.0063    0.0000 O.2     1  LIG1       -0.2468
      2 C           1.1435    0.0063    0.0000 C.ar    1  LIG1        0.3250
      3 N           0.6586    0.6738    0.0000 N.ar    1  LIG1       -0.3060
      4 C          -0.1261    0.4188    0.0000 C.ar    1  LIG1        0.0697
      5 C          -0.8405    0.8313    0.0000 C.ar    1  LIG1       -0.0181
      6 C          -1.5550    0.4188    0.0000 C.ar    1  LIG1        0.0296
      7 N          -1.5550   -0.4062    0.0000 N.ar    1  LIG1       -0.2611
      8 C          -0.8405   -0.8187    0.0000 C.ar    1  LIG1        0.0530
      9 C          -0.1261   -0.4062    0.0000 C.ar    1  LIG1        0.0851
     10 N           0.6586   -0.6611    0.0000 N.ar    1  LIG1       -0.3049
     11 H           0.9931    1.7033    0.0000 H       1  LIG1        0.1704
     12 H          -0.8405    1.9328    0.0000 H       1  LIG1        0.0654
     13 H          -2.5089    0.9696    0.0000 H       1  LIG1        0.0830
     14 H          -0.8405   -1.9202    0.0000 H       1  LIG1        0.0851
     15 H           0.9931   -1.6906    0.0000 H       1  LIG1        0.1705
@<TRIPOS>BOND
     1     1     2    2
     2     2     3   ar
     3     3     4   ar
     4     4     5   ar
     5     5     6   ar
     6     6     7   ar
     7     7     8   ar
     8     8     9   ar
     9     4     9   ar
    10     9    10   ar
    11     2    10   ar
    12     3    11    1
    13     5    12    1
    14     6    13    1
    15     8    14    1
    16    10    15    1
