@<TRIPOS>MOLECULE
Cn1ncc(=O)[nH]1
 12 12 0 0 0
SMALL
GASTEIGER
Energy = 0

@<TRIPOS>ATOM
      1 C           1.3177    0.7687    0.0000 C.3     1  LIG1        0.0479
      2 N           0.6502    0.2837    0.0000 N.ar    1  LIG1       -0.2064
      3 N          -0.1344    0.5387    0.0000 N.ar    1  LIG1       -0.2463
      4 C          -0.6193   -0.1288    0.0000 C.ar    1  LIG1        0.2842
      5 O          -1.4443   -0.1288    0.0000 O.2     1  LIG1       -0.2647
      6 C          -0.1344   -0.7962    0.0000 C.ar    1  LIG1        0.1150
      7 N           0.6502   -0.5413    0.0000 N.ar    1  LIG1       -0.1586
      8 H           0.9939    1.8617    0.0000 H       1  LIG1        0.0490
      9 H           1.9653    0.5489   -0.9121 H       1  LIG1        0.0490
     10 H           1.9326    0.5600    0.9370 H       1  LIG1        0.0490
     11 H          -0.4689    1.5682    0.0000 H       1  LIG1        0.1917
     12 H          -0.4748   -1.8438    0.0000 H       1  LIG1        0.0904
@<TRIPOS>BOND
     1     1     2    1
     2     2     3   ar
     3     3     4   ar
     4     4     5    2
     5     4     6   ar
     6     6     7   ar
     7     2     7   ar
     8     1     8    1
     9     1     9    1
    10     1    10    1
    11     3    11    1
    12     6    12    1
