@<TRIPOS>MOLECULE
O=c1ccc2ccccc2[nH]1
 18 19 0 0 0
SMALL
GASTEIGER
Energy = 0

@<TRIPOS>ATOM
      1 O           1.8848    0.7175    0.0000 O.2     1  LIG1       -0.2679
      2 C           1.1703    0.3050    0.0000 C.ar    1  LIG1        0.2492
      3 N           0.4558    0.7175    0.0000 N.ar    1  LIG1       -0.3221
      4 C          -0.2586    0.3050    0.0000 C.ar    1  LIG1        0.0492
      5 C          -0.9731    0.7175    0.0000 C.ar    1  LIG1       -0.0377
      6 C          -1.6876    0.3050    0.0000 C.ar    1  LIG1       -0.0598
      7 C          -1.6876   -0.5200    0.0000 C.ar    1  LIG1       -0.0611
      8 C          -0.9731   -0.9325    0.0000 C.ar    1  LIG1       -0.0526
      9 C          -0.2586   -0.5200    0.0000 C.ar    1  LIG1       -0.0015
     10 C           0.4558   -0.9325    0.0000 C.ar    1  LIG1       -0.0475
     11 C           1.1703   -0.5200    0.0000 C.ar    1  LIG1        0.0034
     12 H           0.4558    1.8000    0.0000 H       1  LIG1        0.1689
     13 H          -0.9731    1.8190    0.0000 H       1  LIG1        0.0638
     14 H          -2.6415    0.8558    0.0000 H       1  LIG1        0.0618
     15 H          -2.6415   -1.0708    0.0000 H       1  LIG1        0.0618
     16 H          -0.9731   -2.0340    0.0000 H       1  LIG1        0.0624
     17 H           0.4558   -2.0340    0.0000 H       1  LIG1        0.0626
     18 H           2.1242   -1.0708    0.0000 H       1  LIG1        0.0672
@<TRIPOS>BOND
     1     1     2    2
     2     2     3   ar
     3     3     4   ar
     4     4     5   ar
     5     5     6   ar
     6     6     7   ar
     7     7     8   ar
     8     8     9   ar
     9     4     9   ar
    10     9    10   ar
    11    10    11   ar
    12     2    11   ar
    13     3    12    1
    14     5    13    1
    15     6    14    1
    16     7    15    1
    17     8    16    1
    18    10    17    1
    19    11    18    1
