@<TRIPOS>MOLECULE
O=c1ccn2ccnnc2n1
 15 16 0 0 0
SMALL
GASTEIGER
Energy = 0

@<TRIPOS>ATOM
      1 O           1.9252   -0.7105    0.0000 O.2     1  LIG1       -0.2657
      2 C           1.2107   -0.2980    0.0000 C.ar    1  LIG1        0.2747
      3 C           1.2107    0.5270    0.0000 C.ar    1  LIG1        0.0213
      4 C           0.4963    0.9395    0.0000 C.ar    1  LIG1        0.0178
      5 N          -0.2182    0.5270    0.0000 N.ar    1  LIG1       -0.2895
      6 C          -0.9327    0.9395    0.0000 C.ar    1  LIG1        0.0324
      7 C          -1.6471    0.5270    0.0000 C.ar    1  LIG1        0.0666
      8 N          -1.6471   -0.2980    0.0000 N.ar    1  LIG1       -0.1527
      9 N          -0.9327   -0.7105    0.0000 N.ar    1  LIG1       -0.1100
     10 C          -0.2182   -0.2980    0.0000 C.ar    1  LIG1        0.2573
     11 N           0.4963   -0.7105    0.0000 N.ar    1  LIG1       -0.1716
     12 H           2.1646    1.0777    0.0000 H       1  LIG1        0.0687
     13 H           0.4963    2.0410    0.0000 H       1  LIG1        0.0815
     14 H          -0.9327    2.0410    0.0000 H       1  LIG1        0.0830
     15 H          -2.6010    1.0777    0.0000 H       1  LIG1        0.0863
@<TRIPOS>BOND
     1     1     2    2
     2     2     3   ar
     3     3     4   ar
     4     4     5   ar
     5     5     6   ar
     6     6     7   ar
     7     7     8   ar
     8     8     9   ar
     9     9    10   ar
    10     5    10   ar
    11    10    11   ar
    12     2    11   ar
    13     3    12    1
    14     4    13    1
    15     6    14    1
    16     7    15    1
