@<TRIPOS>MOLECULE
O=c1ccc2nccnc2[nH]1
 16 17 0 0 0
SMALL
GASTEIGER
Energy = 0

@<TRIPOS>ATOM
      1 O           1.9121    0.7205    0.0000 O.2     1  LIG1       -0.2679
      2 C           1.1976    0.3080    0.0000 C.ar    1  LIG1        0.2503
      3 N           0.4832    0.7205    0.0000 N.ar    1  LIG1       -0.3058
      4 C          -0.2313    0.3080    0.0000 C.ar    1  LIG1        0.1592
      5 N          -0.9458    0.7205    0.0000 N.ar    1  LIG1       -0.2344
      6 C          -1.6602    0.3080    0.0000 C.ar    1  LIG1        0.0480
      7 C          -1.6602   -0.5170    0.0000 C.ar    1  LIG1        0.0465
      8 N          -0.9458   -0.9295    0.0000 N.ar    1  LIG1       -0.2504
      9 C          -0.2313   -0.5170    0.0000 C.ar    1  LIG1        0.1062
     10 C           0.4832   -0.9295    0.0000 C.ar    1  LIG1       -0.0276
     11 C           1.1976   -0.5170    0.0000 C.ar    1  LIG1        0.0049
     12 H           0.4832    1.8030    0.0000 H       1  LIG1        0.1704
     13 H          -2.6141    0.8587    0.0000 H       1  LIG1        0.0846
     14 H          -2.6141   -1.0677    0.0000 H       1  LIG1        0.0845
     15 H           0.4832   -2.0310    0.0000 H       1  LIG1        0.0642
     16 H           2.1515   -1.0677    0.0000 H       1  LIG1        0.0672
@<TRIPOS>BOND
     1     1     2    2
     2     2     3   ar
     3     3     4   ar
     4     4     5   ar
     5     5     6   ar
     6     6     7   ar
     7     7     8   ar
     8     8     9   ar
     9     4     9   ar
    10     9    10   ar
    11    10    11   ar
    12     2    11   ar
    13     3    12    1
    14     6    13    1
    15     7    14    1
    16    10    15    1
    17    11    16    1
