@<TRIPOS>MOLECULE
O=c1ccn2ccsc2n1
 14 15 0 0 0
SMALL
GASTEIGER
Energy = 0

@<TRIPOS>ATOM
      1 O           1.8911   -0.6400    0.0000 O.2     1  LIG1       -0.2658
      2 C           1.1766   -0.2275    0.0000 C.ar    1  LIG1        0.2739
      3 C           1.1766    0.5975    0.0000 C.ar    1  LIG1        0.0213
      4 C           0.4622    1.0100    0.0000 C.ar    1  LIG1        0.0168
      5 N          -0.2523    0.5975    0.0000 N.ar    1  LIG1       -0.3017
      6 C          -1.0369    0.8525    0.0000 C.ar    1  LIG1        0.0182
      7 C          -1.5218    0.1850    0.0000 C.ar    1  LIG1       -0.0044
      8 S          -1.0369   -0.4824    0.0000 S.2     1  LIG1       -0.0576
      9 C          -0.2523   -0.2275    0.0000 C.ar    1  LIG1        0.1807
     10 N           0.4622   -0.6400    0.0000 N.ar    1  LIG1       -0.1844
     11 H           2.1305    1.1482    0.0000 H       1  LIG1        0.0687
     12 H           0.4622    2.1115    0.0000 H       1  LIG1        0.0815
     13 H          -1.3773    1.9001    0.0000 H       1  LIG1        0.0818
     14 H          -2.6233    0.1850    0.0000 H       1  LIG1        0.0709
@<TRIPOS>BOND
     1     1     2    2
     2     2     3   ar
     3     3     4   ar
     4     4     5   ar
     5     5     6   ar
     6     6     7   ar
     7     7     8   ar
     8     8     9   ar
     9     5     9   ar
    10     9    10   ar
    11     2    10   ar
    12     3    11    1
    13     4    12    1
    14     6    13    1
    15     7    14    1
