@<TRIPOS>MOLECULE
c1nnco1
 7 7 0 0 0
SMALL
GASTEIGER
Energy = 0

@<TRIPOS>ATOM
      1 O          -0.2144   -0.6600    0.0000 O.2     1  LIG1       -0.4300
      2 C           0.5702   -0.4051    0.0000 C.ar    1  LIG1        0.2040
      3 N           0.5702    0.4199    0.0000 N.ar    1  LIG1       -0.1162
      4 N          -0.2144    0.6749    0.0000 N.ar    1  LIG1       -0.1162
      5 C          -0.6994    0.0074    0.0000 C.ar    1  LIG1        0.2040
      6 H           1.4613   -1.0526    0.0000 H       1  LIG1        0.1272
      7 H          -1.8009    0.0074    0.0000 H       1  LIG1        0.1272
@<TRIPOS>BOND
     1     1     2   ar
     2     2     3   ar
     3     3     4   ar
     4     4     5   ar
     5     1     5   ar
     6     2     6    1
     7     5     7    1
