@<TRIPOS>MOLECULE
O=c1ncn2cnccc2n1
 15 16 0 0 0
SMALL
GASTEIGER
Energy = 0

@<TRIPOS>ATOM
      1 O           1.8955   -0.7391    0.0000 O.2     1  LIG1       -0.2425
      2 C           1.1810   -0.3266    0.0000 C.ar    1  LIG1        0.3708
      3 N           1.1810    0.4984    0.0000 N.ar    1  LIG1       -0.1814
      4 C           0.4666    0.9109    0.0000 C.ar    1  LIG1        0.1081
      5 N          -0.2479    0.4984    0.0000 N.ar    1  LIG1       -0.2747
      6 C          -0.9624    0.9109    0.0000 C.ar    1  LIG1        0.1026
      7 N          -1.6768    0.4984    0.0000 N.ar    1  LIG1       -0.2450
      8 C          -1.6768   -0.3266    0.0000 C.ar    1  LIG1        0.0327
      9 C          -0.9624   -0.7391    0.0000 C.ar    1  LIG1       -0.0005
     10 C          -0.2479   -0.3266    0.0000 C.ar    1  LIG1        0.1467
     11 N           0.4666   -0.7391    0.0000 N.ar    1  LIG1       -0.1736
     12 H           0.4666    2.0124    0.0000 H       1  LIG1        0.1035
     13 H          -0.9624    2.0124    0.0000 H       1  LIG1        0.1033
     14 H          -2.6307   -0.8773    0.0000 H       1  LIG1        0.0831
     15 H          -0.9624   -1.8406    0.0000 H       1  LIG1        0.0669
@<TRIPOS>BOND
     1     1     2    2
     2     2     3   ar
     3     3     4   ar
     4     4     5   ar
     5     5     6   ar
     6     6     7   ar
     7     7     8   ar
     8     8     9   ar
     9     9    10   ar
    10     5    10   ar
    11    10    11   ar
    12     2    11   ar
    13     4    12    1
    14     6    13    1
    15     8    14    1
    16     9    15    1
