@<TRIPOS>MOLECULE
CN1C=Nc2ccccc2S1(=O)=O
 21 22 0 0 0
SMALL
GASTEIGER
Energy = 0

@<TRIPOS>ATOM
      1 C           1.7862   -0.4145    0.0000 C.3     1  LIG1        0.0245
      2 N           1.0717   -0.0020    0.0000 N.pl3   1  LIG1       -0.1954
      3 C           1.0717    0.8230    0.0000 C.cat   1  LIG1        0.1041
      4 N           0.3573    1.2355    0.0000 N.2     1  LIG1       -0.2370
      5 C          -0.3572    0.8230    0.0000 C.ar    1  LIG1        0.0919
      6 C          -1.0717    1.2355    0.0000 C.ar    1  LIG1       -0.0343
      7 C          -1.7861    0.8230    0.0000 C.ar    1  LIG1       -0.0596
      8 C          -1.7861   -0.0020    0.0000 C.ar    1  LIG1       -0.0598
      9 C          -1.0717   -0.4145    0.0000 C.ar    1  LIG1       -0.0330
     10 C          -0.3572   -0.0020    0.0000 C.ar    1  LIG1        0.1340
     11 S           0.3573   -0.4145    0.0000 S.O2    1  LIG1        0.0772
     12 O           0.6011   -1.2026    0.0000 O.2     1  LIG1       -0.1497
     13 O           0.1135   -1.2026    0.0000 O.2     1  LIG1       -0.1497
     14 H           2.6530    0.3259    0.0000 H       1  LIG1        0.0446
     15 H           1.8488   -1.0955   -0.9121 H       1  LIG1        0.0446
     16 H           1.8456   -1.0611    0.9370 H       1  LIG1        0.0446
     17 H           2.0256    1.3737    0.0000 H       1  LIG1        0.1015
     18 H          -1.0717    2.3370    0.0000 H       1  LIG1        0.0639
     19 H          -2.7400    1.3737    0.0000 H       1  LIG1        0.0618
     20 H          -2.7400   -0.5527    0.0000 H       1  LIG1        0.0618
     21 H          -1.0717   -1.5160    0.0000 H       1  LIG1        0.0638
@<TRIPOS>BOND
     1     1     2    1
     2     2     3    1
     3     3     4    2
     4     4     5    1
     5     5     6   ar
     6     6     7   ar
     7     7     8   ar
     8     8     9   ar
     9     9    10   ar
    10     5    10   ar
    11    10    11    1
    12     2    11    1
    13    11    12    2
    14    11    13    2
    15     1    14    1
    16     1    15    1
    17     1    16    1
    18     3    17    1
    19     6    18    1
    20     7    19    1
    21     8    20    1
    22     9    21    1
