@<TRIPOS>MOLECULE
O=c1ccc2cnc[nH]c2n1
 16 17 0 0 0
SMALL
GASTEIGER
Energy = 0

@<TRIPOS>ATOM
      1 O           1.9221   -0.7147    0.0000 O.2     1  LIG1       -0.2658
      2 C           1.2077   -0.3022    0.0000 C.ar    1  LIG1        0.2721
      3 C           1.2077    0.5228    0.0000 C.ar    1  LIG1        0.0054
      4 C           0.4932    0.9353    0.0000 C.ar    1  LIG1       -0.0445
      5 C          -0.2213    0.5228    0.0000 C.ar    1  LIG1        0.0357
      6 C          -0.9357    0.9353    0.0000 C.ar    1  LIG1        0.0399
      7 N          -1.6502    0.5228    0.0000 N.ar    1  LIG1       -0.2449
      8 C          -1.6502   -0.3022    0.0000 C.ar    1  LIG1        0.0947
      9 N          -0.9357   -0.7147    0.0000 N.ar    1  LIG1       -0.3304
     10 C          -0.2213   -0.3022    0.0000 C.ar    1  LIG1        0.1446
     11 N           0.4932   -0.7147    0.0000 N.ar    1  LIG1       -0.1912
     12 H           2.1616    1.0736    0.0000 H       1  LIG1        0.0672
     13 H           0.4932    2.0368    0.0000 H       1  LIG1        0.0627
     14 H          -0.9357    2.0368    0.0000 H       1  LIG1        0.0837
     15 H          -2.6041   -0.8530    0.0000 H       1  LIG1        0.1027
     16 H          -0.9357   -1.7972    0.0000 H       1  LIG1        0.1682
@<TRIPOS>BOND
     1     1     2    2
     2     2     3   ar
     3     3     4   ar
     4     4     5   ar
     5     5     6   ar
     6     6     7   ar
     7     7     8   ar
     8     8     9   ar
     9     9    10   ar
    10     5    10   ar
    11    10    11   ar
    12     2    11   ar
    13     3    12    1
    14     4    13    1
    15     6    14    1
    16     8    15    1
    17     9    16    1
