@<TRIPOS>MOLECULE
Cn1cc2c(=O)cc[nH]c2n1
 18 19 0 0 0
SMALL
GASTEIGER
Energy = 0

@<TRIPOS>ATOM
      1 C           2.1015   -0.1648    0.0000 C.3     1  LIG1        0.0303
      2 N           1.2765   -0.1648    0.0000 N.ar    1  LIG1       -0.2718
      3 C           0.7916    0.5026    0.0000 C.ar    1  LIG1        0.0381
      4 C           0.0070    0.2477    0.0000 C.ar    1  LIG1        0.0832
      5 C          -0.7075    0.6602    0.0000 C.ar    1  LIG1        0.1924
      6 O          -0.7075    1.4852    0.0000 O.2     1  LIG1       -0.2871
      7 C          -1.4220    0.2477    0.0000 C.ar    1  LIG1        0.0018
      8 C          -1.4220   -0.5773    0.0000 C.ar    1  LIG1        0.0072
      9 N          -0.7075   -0.9898    0.0000 N.ar    1  LIG1       -0.3443
     10 C           0.0070   -0.5773    0.0000 C.ar    1  LIG1        0.1634
     11 N           0.7916   -0.8323    0.0000 N.ar    1  LIG1       -0.1531
     12 H           2.4820    0.9098    0.0000 H       1  LIG1        0.0473
     13 H           2.4962   -0.7233   -0.9121 H       1  LIG1        0.0473
     14 H           2.4762   -0.6950    0.9370 H       1  LIG1        0.0473
     15 H           1.1320    1.5502    0.0000 H       1  LIG1        0.0834
     16 H          -2.3759    0.7985    0.0000 H       1  LIG1        0.0670
     17 H          -2.3759   -1.1281    0.0000 H       1  LIG1        0.0808
     18 H          -0.7075   -2.0723    0.0000 H       1  LIG1        0.1668
@<TRIPOS>BOND
     1     1     2    1
     2     2     3   ar
     3     3     4   ar
     4     4     5   ar
     5     5     6    2
     6     5     7   ar
     7     7     8   ar
     8     8     9   ar
     9     9    10   ar
    10     4    10   ar
    11    10    11   ar
    12     2    11   ar
    13     1    12    1
    14     1    13    1
    15     1    14    1
    16     3    15    1
    17     7    16    1
    18     8    17    1
    19     9    18    1
