@<TRIPOS>MOLECULE
O=c1ccnc2cc[nH]cc12
 17 18 0 0 0
SMALL
GASTEIGER
Energy = 0

@<TRIPOS>ATOM
      1 O           0.6431   -1.4674    0.0000 O.2     1  LIG1       -0.2871
      2 C           0.6431   -0.6424    0.0000 C.ar    1  LIG1        0.1909
      3 C           1.3575   -0.2299    0.0000 C.ar    1  LIG1        0.0039
      4 C           1.3575    0.5951    0.0000 C.ar    1  LIG1        0.0319
      5 N           0.6431    1.0076    0.0000 N.ar    1  LIG1       -0.2546
      6 C          -0.0714    0.5951    0.0000 C.ar    1  LIG1        0.0774
      7 C          -0.7859    1.0076    0.0000 C.ar    1  LIG1       -0.0196
      8 C          -1.5004    0.5951    0.0000 C.ar    1  LIG1        0.0036
      9 N          -1.5004   -0.2299    0.0000 N.ar    1  LIG1       -0.3662
     10 C          -0.7859   -0.6424    0.0000 C.ar    1  LIG1        0.0145
     11 C          -0.0714   -0.2299    0.0000 C.ar    1  LIG1        0.0629
     12 H           2.3114   -0.7806    0.0000 H       1  LIG1        0.0671
     13 H           2.3114    1.1458    0.0000 H       1  LIG1        0.0831
     14 H          -0.7859    2.1091    0.0000 H       1  LIG1        0.0653
     15 H          -2.4543    1.1459    0.0000 H       1  LIG1        0.0807
     16 H          -2.4379   -0.7712    0.0000 H       1  LIG1        0.1648
     17 H          -0.7859   -1.7439    0.0000 H       1  LIG1        0.0814
@<TRIPOS>BOND
     1     1     2    2
     2     2     3   ar
     3     3     4   ar
     4     4     5   ar
     5     5     6   ar
     6     6     7   ar
     7     7     8   ar
     8     8     9   ar
     9     9    10   ar
    10    10    11   ar
    11     2    11   ar
    12     6    11   ar
    13     3    12    1
    14     4    13    1
    15     7    14    1
    16     8    15    1
    17     9    16    1
    18    10    17    1
