@<TRIPOS>MOLECULE
Cn1cnc2ncoc12
 14 15 0 0 0
SMALL
GASTEIGER
Energy = 0

@<TRIPOS>ATOM
      1 C           0.9471   -1.2931    0.0000 C.3     1  LIG1        0.0161
      2 N           0.6921   -0.5085    0.0000 N.ar    1  LIG1       -0.3027
      3 C           1.1770    0.1590    0.0000 C.ar    1  LIG1        0.1008
      4 N           0.6921    0.8264    0.0000 N.ar    1  LIG1       -0.2136
      5 C          -0.0925    0.5715    0.0000 C.ar    1  LIG1        0.2182
      6 C          -0.0925   -0.2535    0.0000 C.ar    1  LIG1        0.2483
      7 O          -0.8771   -0.5085    0.0000 O.2     1  LIG1       -0.4244
      8 C          -1.3620    0.1590    0.0000 C.ar    1  LIG1        0.1865
      9 N          -0.8771    0.8264    0.0000 N.ar    1  LIG1       -0.1950
     10 H           2.0867   -1.3229    0.0000 H       1  LIG1        0.0457
     11 H           0.5380   -1.8411   -0.9121 H       1  LIG1        0.0457
     12 H           0.5586   -1.8134    0.9370 H       1  LIG1        0.0457
     13 H           2.2785    0.1590    0.0000 H       1  LIG1        0.1030
     14 H          -2.4635    0.1590    0.0000 H       1  LIG1        0.1256
@<TRIPOS>BOND
     1     1     2    1
     2     2     3   ar
     3     3     4   ar
     4     4     5   ar
     5     5     6   ar
     6     2     6   ar
     7     6     7   ar
     8     7     8   ar
     9     8     9   ar
    10     5     9   ar
    11     1    10    1
    12     1    11    1
    13     1    12    1
    14     3    13    1
    15     8    14    1
