@<TRIPOS>MOLECULE
Cn1cnc2c(=O)[nH]ccc12
 18 19 0 0 0
SMALL
GASTEIGER
Energy = 0

@<TRIPOS>ATOM
      1 C           1.1526   -1.5209    0.0000 C.3     1  LIG1        0.0133
      2 N           0.8976   -0.7363    0.0000 N.ar    1  LIG1       -0.3330
      3 C           1.3825   -0.0688    0.0000 C.ar    1  LIG1        0.0970
      4 N           0.8976    0.5986    0.0000 N.ar    1  LIG1       -0.2303
      5 C           0.1130    0.3437    0.0000 C.ar    1  LIG1        0.1530
      6 C           0.1130   -0.4813    0.0000 C.ar    1  LIG1        0.0751
      7 C          -0.6015   -0.8938    0.0000 C.ar    1  LIG1       -0.0198
      8 C          -1.3159   -0.4813    0.0000 C.ar    1  LIG1        0.0070
      9 N          -1.3159    0.3437    0.0000 N.ar    1  LIG1       -0.3272
     10 C          -0.6015    0.7562    0.0000 C.ar    1  LIG1        0.2763
     11 O          -0.6015    1.5812    0.0000 O.2     1  LIG1       -0.2655
     12 H           2.2922   -1.5507    0.0000 H       1  LIG1        0.0456
     13 H           0.7435   -2.0689   -0.9121 H       1  LIG1        0.0456
     14 H           0.7641   -2.0412    0.9370 H       1  LIG1        0.0456
     15 H           2.4840   -0.0688    0.0000 H       1  LIG1        0.1029
     16 H          -0.6015   -1.9953    0.0000 H       1  LIG1        0.0653
     17 H          -2.2698   -1.0320    0.0000 H       1  LIG1        0.0808
     18 H          -2.2534    0.8849    0.0000 H       1  LIG1        0.1684
@<TRIPOS>BOND
     1     1     2    1
     2     2     3   ar
     3     3     4   ar
     4     4     5   ar
     5     5     6   ar
     6     2     6   ar
     7     6     7   ar
     8     7     8   ar
     9     8     9   ar
    10     9    10   ar
    11     5    10   ar
    12    10    11    2
    13     1    12    1
    14     1    13    1
    15     1    14    1
    16     3    15    1
    17     7    16    1
    18     8    17    1
    19     9    18    1
