@<TRIPOS>MOLECULE
c1occ2ncccc12
 14 15 0 0 0
SMALL
GASTEIGER
Energy = 0

@<TRIPOS>ATOM
      1 O           1.3901    0.0144    0.0000 O.2     1  LIG1       -0.4683
      2 C           0.9052    0.6819    0.0000 C.ar    1  LIG1        0.1009
      3 C           0.1206    0.4269    0.0000 C.ar    1  LIG1        0.0382
      4 C          -0.5939    0.8394    0.0000 C.ar    1  LIG1       -0.0481
      5 C          -1.3084    0.4269    0.0000 C.ar    1  LIG1       -0.0429
      6 C          -1.3084   -0.3981    0.0000 C.ar    1  LIG1        0.0284
      7 N          -0.5939   -0.8106    0.0000 N.ar    1  LIG1       -0.2518
      8 C           0.1206   -0.3981    0.0000 C.ar    1  LIG1        0.1085
      9 C           0.9052   -0.6530    0.0000 C.ar    1  LIG1        0.1176
     10 H           1.2456    1.7295    0.0000 H       1  LIG1        0.1036
     11 H          -0.5939    1.9409    0.0000 H       1  LIG1        0.0626
     12 H          -2.2623    0.9777    0.0000 H       1  LIG1        0.0633
     13 H          -2.2623   -0.9489    0.0000 H       1  LIG1        0.0830
     14 H           1.2456   -1.7006    0.0000 H       1  LIG1        0.1051
@<TRIPOS>BOND
     1     1     2   ar
     2     2     3   ar
     3     3     4   ar
     4     4     5   ar
     5     5     6   ar
     6     6     7   ar
     7     7     8   ar
     8     3     8   ar
     9     8     9   ar
    10     1     9   ar
    11     2    10    1
    12     4    11    1
    13     5    12    1
    14     6    13    1
    15     9    14    1
