@<TRIPOS>MOLECULE
Cn1ncn2cnnc12
 14 15 0 0 0
SMALL
GASTEIGER
Energy = 0

@<TRIPOS>ATOM
      1 C           0.9338   -1.2888    0.0000 C.3     1  LIG1        0.0339
      2 N           0.6789   -0.5041    0.0000 N.ar    1  LIG1       -0.2326
      3 N           1.1638    0.1633    0.0000 N.ar    1  LIG1       -0.1584
      4 C           0.6789    0.8307    0.0000 C.ar    1  LIG1        0.1245
      5 N          -0.1057    0.5758    0.0000 N.ar    1  LIG1       -0.2550
      6 C          -0.8904    0.8307    0.0000 C.ar    1  LIG1        0.1265
      7 N          -1.3753    0.1633    0.0000 N.ar    1  LIG1       -0.1356
      8 N          -0.8904   -0.5041    0.0000 N.ar    1  LIG1       -0.1090
      9 C          -0.1057   -0.2492    0.0000 C.ar    1  LIG1        0.2532
     10 H           2.0734   -1.3187    0.0000 H       1  LIG1        0.0474
     11 H           0.5246   -1.8367   -0.9121 H       1  LIG1        0.0474
     12 H           0.5453   -1.8090    0.9370 H       1  LIG1        0.0474
     13 H           1.0193    1.8783    0.0000 H       1  LIG1        0.1052
     14 H          -1.2308    1.8783    0.0000 H       1  LIG1        0.1052
@<TRIPOS>BOND
     1     1     2    1
     2     2     3   ar
     3     3     4   ar
     4     4     5   ar
     5     5     6   ar
     6     6     7   ar
     7     7     8   ar
     8     8     9   ar
     9     2     9   ar
    10     5     9   ar
    11     1    10    1
    12     1    11    1
    13     1    12    1
    14     4    13    1
    15     6    14    1
