@<TRIPOS>MOLECULE
O=c1cc2cccnn2cn1
 16 17 0 0 0
SMALL
GASTEIGER
Energy = 0

@<TRIPOS>ATOM
      1 O           1.8920    0.7553    0.0000 O.2     1  LIG1       -0.2658
      2 C           1.1776    0.3428    0.0000 C.ar    1  LIG1        0.2736
      3 C           0.4631    0.7553    0.0000 C.ar    1  LIG1        0.0302
      4 C          -0.2514    0.3428    0.0000 C.ar    1  LIG1        0.0723
      5 C          -0.9658    0.7553    0.0000 C.ar    1  LIG1       -0.0346
      6 C          -1.6803    0.3428    0.0000 C.ar    1  LIG1       -0.0399
      7 C          -1.6803   -0.4822    0.0000 C.ar    1  LIG1        0.0485
      8 N          -0.9658   -0.8947    0.0000 N.ar    1  LIG1       -0.1735
      9 N          -0.2514   -0.4822    0.0000 N.ar    1  LIG1       -0.2215
     10 C           0.4631   -0.8947    0.0000 C.ar    1  LIG1        0.1220
     11 N           1.1776   -0.4822    0.0000 N.ar    1  LIG1       -0.1975
     12 H           0.4631    1.8568    0.0000 H       1  LIG1        0.0694
     13 H          -0.9658    1.8568    0.0000 H       1  LIG1        0.0639
     14 H          -2.6342    0.8936    0.0000 H       1  LIG1        0.0634
     15 H          -2.6342   -1.0330    0.0000 H       1  LIG1        0.0847
     16 H           0.4631   -1.9962    0.0000 H       1  LIG1        0.1049
@<TRIPOS>BOND
     1     1     2    2
     2     2     3   ar
     3     3     4   ar
     4     4     5   ar
     5     5     6   ar
     6     6     7   ar
     7     7     8   ar
     8     8     9   ar
     9     4     9   ar
    10     9    10   ar
    11    10    11   ar
    12     2    11   ar
    13     3    12    1
    14     5    13    1
    15     6    14    1
    16     7    15    1
    17    10    16    1
