@<TRIPOS>MOLECULE
c1nnn2cccnc12
 13 14 0 0 0
SMALL
GASTEIGER
Energy = 0

@<TRIPOS>ATOM
      1 C           1.3022    0.4081    0.0000 C.ar    1  LIG1       -0.0253
      2 C           0.5877    0.8206    0.0000 C.ar    1  LIG1        0.0345
      3 N          -0.1268    0.4081    0.0000 N.ar    1  LIG1       -0.2020
      4 N          -0.9114    0.6631    0.0000 N.ar    1  LIG1       -0.0594
      5 N          -1.3963   -0.0044    0.0000 N.ar    1  LIG1       -0.1354
      6 C          -0.9114   -0.6718    0.0000 C.ar    1  LIG1        0.0957
      7 C          -0.1268   -0.4169    0.0000 C.ar    1  LIG1        0.1755
      8 N           0.5877   -0.8294    0.0000 N.ar    1  LIG1       -0.2348
      9 C           1.3022   -0.4169    0.0000 C.ar    1  LIG1        0.0314
     10 H           2.2561    0.9589    0.0000 H       1  LIG1        0.0648
     11 H           0.5877    1.9221    0.0000 H       1  LIG1        0.0832
     12 H          -1.2518   -1.7194    0.0000 H       1  LIG1        0.0887
     13 H           2.2561   -0.9677    0.0000 H       1  LIG1        0.0831
@<TRIPOS>BOND
     1     1     2   ar
     2     2     3   ar
     3     3     4   ar
     4     4     5   ar
     5     5     6   ar
     6     6     7   ar
     7     3     7   ar
     8     7     8   ar
     9     8     9   ar
    10     1     9   ar
    11     1    10    1
    12     2    11    1
    13     6    12    1
    14     9    13    1
