@<TRIPOS>MOLECULE
O=c1nc2cnccn2o1
 13 14 0 0 0
SMALL
GASTEIGER
Energy = 0

@<TRIPOS>ATOM
      1 O           1.9606   -0.0099    0.0000 O.2     1  LIG1       -0.2188
      2 C           1.1356   -0.0099    0.0000 C.ar    1  LIG1        0.4612
      3 O           0.6506    0.6575    0.0000 O.2     1  LIG1       -0.3130
      4 N          -0.1340    0.4026    0.0000 N.ar    1  LIG1       -0.1570
      5 C          -0.8485    0.8151    0.0000 C.ar    1  LIG1        0.0652
      6 C          -1.5629    0.4026    0.0000 C.ar    1  LIG1        0.0472
      7 N          -1.5629   -0.4224    0.0000 N.ar    1  LIG1       -0.2580
      8 C          -0.8485   -0.8349    0.0000 C.ar    1  LIG1        0.0733
      9 C          -0.1340   -0.4224    0.0000 C.ar    1  LIG1        0.1941
     10 N           0.6506   -0.6774    0.0000 N.ar    1  LIG1       -0.1515
     11 H          -0.8485    1.9166    0.0000 H       1  LIG1        0.0860
     12 H          -2.5168    0.9533    0.0000 H       1  LIG1        0.0845
     13 H          -0.8485   -1.9364    0.0000 H       1  LIG1        0.0868
@<TRIPOS>BOND
     1     1     2    2
     2     2     3   ar
     3     3     4   ar
     4     4     5   ar
     5     5     6   ar
     6     6     7   ar
     7     7     8   ar
     8     8     9   ar
     9     4     9   ar
    10     9    10   ar
    11     2    10   ar
    12     5    11    1
    13     6    12    1
    14     8    13    1
