@<TRIPOS>MOLECULE
c1cn2cncc2s1
 12 13 0 0 0
SMALL
GASTEIGER
Energy = 0

@<TRIPOS>ATOM
      1 S           0.6747   -0.5629    0.0000 S.2     1  LIG1       -0.0762
      2 C           1.1597    0.1046    0.0000 C.ar    1  LIG1       -0.0058
      3 C           0.6747    0.7720    0.0000 C.ar    1  LIG1        0.0183
      4 N          -0.1099    0.5171    0.0000 N.ar    1  LIG1       -0.2997
      5 C          -0.8945    0.7720    0.0000 C.ar    1  LIG1        0.1008
      6 N          -1.3794    0.1046    0.0000 N.ar    1  LIG1       -0.2426
      7 C          -0.8945   -0.5629    0.0000 C.ar    1  LIG1        0.0599
      8 C          -0.1099   -0.3079    0.0000 C.ar    1  LIG1        0.1037
      9 H           2.2612    0.1046    0.0000 H       1  LIG1        0.0709
     10 H           1.0150    1.8196    0.0000 H       1  LIG1        0.0819
     11 H          -1.2349    1.8196    0.0000 H       1  LIG1        0.1032
     12 H          -1.2349   -1.6105    0.0000 H       1  LIG1        0.0857
@<TRIPOS>BOND
     1     1     2   ar
     2     2     3   ar
     3     3     4   ar
     4     4     5   ar
     5     5     6   ar
     6     6     7   ar
     7     7     8   ar
     8     1     8   ar
     9     4     8   ar
    10     2     9    1
    11     3    10    1
    12     5    11    1
    13     7    12    1
