@<TRIPOS>MOLECULE
O=c1[nH]ncc2cnoc12
 13 14 0 0 0
SMALL
GASTEIGER
Energy = 0

@<TRIPOS>ATOM
      1 O          -0.4992   -1.4332    0.0000 O.2     1  LIG1       -0.2623
      2 C          -0.4992   -0.6082    0.0000 C.ar    1  LIG1        0.3104
      3 N          -1.2137   -0.1957    0.0000 N.ar    1  LIG1       -0.2401
      4 N          -1.2137    0.6293    0.0000 N.ar    1  LIG1       -0.1785
      5 C          -0.4992    1.0418    0.0000 C.ar    1  LIG1        0.0603
      6 C           0.2153    0.6293    0.0000 C.ar    1  LIG1        0.0663
      7 C           0.2153   -0.1957    0.0000 C.ar    1  LIG1        0.2339
      8 O           0.9999   -0.4507    0.0000 O.2     1  LIG1       -0.3490
      9 N           1.4848    0.2168    0.0000 N.ar    1  LIG1       -0.0852
     10 C           0.9999    0.8842    0.0000 C.ar    1  LIG1        0.0795
     11 H          -2.1512   -0.7370    0.0000 H       1  LIG1        0.1922
     12 H          -0.4992    2.1433    0.0000 H       1  LIG1        0.0855
     13 H           1.3403    1.9318    0.0000 H       1  LIG1        0.0871
@<TRIPOS>BOND
     1     1     2    2
     2     2     3   ar
     3     3     4   ar
     4     4     5   ar
     5     5     6   ar
     6     6     7   ar
     7     2     7   ar
     8     7     8   ar
     9     8     9   ar
    10     9    10   ar
    11     6    10   ar
    12     3    11    1
    13     5    12    1
    14    10    13    1
