@<TRIPOS>MOLECULE
c1cn2ncccc2n1
 14 15 0 0 0
SMALL
GASTEIGER
Energy = 0

@<TRIPOS>ATOM
      1 C           1.2777    0.4225    0.0000 C.ar    1  LIG1       -0.0384
      2 C           0.5633    0.8350    0.0000 C.ar    1  LIG1       -0.0160
      3 C          -0.1512    0.4225    0.0000 C.ar    1  LIG1        0.1540
      4 N          -0.9358    0.6774    0.0000 N.ar    1  LIG1       -0.2347
      5 C          -1.4208    0.0100    0.0000 C.ar    1  LIG1        0.0481
      6 C          -0.9358   -0.6575    0.0000 C.ar    1  LIG1        0.0495
      7 N          -0.1512   -0.4025    0.0000 N.ar    1  LIG1       -0.2204
      8 N           0.5633   -0.8150    0.0000 N.ar    1  LIG1       -0.1735
      9 C           1.2777   -0.4025    0.0000 C.ar    1  LIG1        0.0485
     10 H           2.2316    0.9732    0.0000 H       1  LIG1        0.0634
     11 H           0.5633    1.9365    0.0000 H       1  LIG1        0.0655
     12 H          -2.5223    0.0100    0.0000 H       1  LIG1        0.0846
     13 H          -1.2761   -1.7051    0.0000 H       1  LIG1        0.0846
     14 H           2.2316   -0.9532    0.0000 H       1  LIG1        0.0847
@<TRIPOS>BOND
     1     1     2   ar
     2     2     3   ar
     3     3     4   ar
     4     4     5   ar
     5     5     6   ar
     6     6     7   ar
     7     3     7   ar
     8     7     8   ar
     9     8     9   ar
    10     1     9   ar
    11     1    10    1
    12     2    11    1
    13     5    12    1
    14     6    13    1
    15     9    14    1
