@<TRIPOS>MOLECULE
O=c1nnc2cccnc2[nH]1
 15 16 0 0 0
SMALL
GASTEIGER
Energy = 0

@<TRIPOS>ATOM
      1 O           1.8757    0.7277    0.0000 O.2     1  LIG1       -0.2430
      2 C           1.1613    0.3152    0.0000 C.ar    1  LIG1        0.3657
      3 N           0.4468    0.7277    0.0000 N.ar    1  LIG1       -0.2881
      4 C          -0.2677    0.3152    0.0000 C.ar    1  LIG1        0.1622
      5 N          -0.9822    0.7277    0.0000 N.ar    1  LIG1       -0.2358
      6 C          -1.6966    0.3152    0.0000 C.ar    1  LIG1        0.0300
      7 C          -1.6966   -0.5098    0.0000 C.ar    1  LIG1       -0.0414
      8 C          -0.9822   -0.9223    0.0000 C.ar    1  LIG1       -0.0295
      9 C          -0.2677   -0.5098    0.0000 C.ar    1  LIG1        0.1285
     10 N           0.4468   -0.9223    0.0000 N.ar    1  LIG1       -0.1413
     11 N           1.1613   -0.5098    0.0000 N.ar    1  LIG1       -0.0897
     12 H           0.4468    1.8102    0.0000 H       1  LIG1        0.1720
     13 H          -2.6505    0.8659    0.0000 H       1  LIG1        0.0830
     14 H          -2.6505   -1.0605    0.0000 H       1  LIG1        0.0633
     15 H          -0.9822   -2.0238    0.0000 H       1  LIG1        0.0641
@<TRIPOS>BOND
     1     1     2    2
     2     2     3   ar
     3     3     4   ar
     4     4     5   ar
     5     5     6   ar
     6     6     7   ar
     7     7     8   ar
     8     8     9   ar
     9     4     9   ar
    10     9    10   ar
    11    10    11   ar
    12     2    11   ar
    13     3    12    1
    14     6    13    1
    15     7    14    1
    16     8    15    1
