@<TRIPOS>MOLECULE
O=c1ccc2sncc2[nH]1
 14 15 0 0 0
SMALL
GASTEIGER
Energy = 0

@<TRIPOS>ATOM
      1 O          -1.9082    0.8151    0.0000 O.2     1  LIG1       -0.2679
      2 C          -1.1938    0.4026    0.0000 C.ar    1  LIG1        0.2492
      3 N          -0.4793    0.8151    0.0000 N.ar    1  LIG1       -0.3204
      4 C           0.2352    0.4026    0.0000 C.ar    1  LIG1        0.0761
      5 C           0.2352   -0.4224    0.0000 C.ar    1  LIG1        0.0557
      6 S           1.0198   -0.6773    0.0000 S.2     1  LIG1        0.0131
      7 N           1.5047   -0.0099    0.0000 N.ar    1  LIG1       -0.2161
      8 C           1.0198    0.6576    0.0000 C.ar    1  LIG1        0.0606
      9 C          -0.4793   -0.8349    0.0000 C.ar    1  LIG1       -0.0394
     10 C          -1.1938   -0.4224    0.0000 C.ar    1  LIG1        0.0039
     11 H          -0.4793    1.8976    0.0000 H       1  LIG1        0.1690
     12 H           1.3602    1.7052    0.0000 H       1  LIG1        0.0858
     13 H          -0.4793   -1.9364    0.0000 H       1  LIG1        0.0631
     14 H          -2.1477   -0.9732    0.0000 H       1  LIG1        0.0672
@<TRIPOS>BOND
     1     1     2    2
     2     2     3   ar
     3     3     4   ar
     4     4     5   ar
     5     5     6   ar
     6     6     7   ar
     7     7     8   ar
     8     4     8   ar
     9     5     9   ar
    10     9    10   ar
    11     2    10   ar
    12     3    11    1
    13     8    12    1
    14     9    13    1
    15    10    14    1
