@<TRIPOS>MOLECULE
Cn1ncc2cnc(=O)[nH]c12
 17 18 0 0 0
SMALL
GASTEIGER
Energy = 0

@<TRIPOS>ATOM
      1 C           1.3128   -1.2245    0.0000 C.3     1  LIG1        0.0324
      2 N           1.0579   -0.4398    0.0000 N.ar    1  LIG1       -0.2509
      3 N           1.5428    0.2276    0.0000 N.ar    1  LIG1       -0.1774
      4 C           1.0579    0.8950    0.0000 C.ar    1  LIG1        0.0601
      5 C           0.2733    0.6401    0.0000 C.ar    1  LIG1        0.0550
      6 C           0.2733   -0.1849    0.0000 C.ar    1  LIG1        0.1414
      7 N          -0.4412   -0.5974    0.0000 N.ar    1  LIG1       -0.2908
      8 C          -1.1557   -0.1849    0.0000 C.ar    1  LIG1        0.3473
      9 O          -1.8701   -0.5974    0.0000 O.2     1  LIG1       -0.2447
     10 N          -1.1557    0.6401    0.0000 N.ar    1  LIG1       -0.2008
     11 C          -0.4412    1.0526    0.0000 C.ar    1  LIG1        0.0451
     12 H           2.4524   -1.2544    0.0000 H       1  LIG1        0.0473
     13 H           0.9036   -1.7724   -0.9121 H       1  LIG1        0.0473
     14 H           0.9243   -1.7447    0.9370 H       1  LIG1        0.0473
     15 H           1.3983    1.9426    0.0000 H       1  LIG1        0.0855
     16 H          -0.4412   -1.6799    0.0000 H       1  LIG1        0.1719
     17 H          -0.4412    2.1541    0.0000 H       1  LIG1        0.0839
@<TRIPOS>BOND
     1     1     2    1
     2     2     3   ar
     3     3     4   ar
     4     4     5   ar
     5     5     6   ar
     6     2     6   ar
     7     6     7   ar
     8     7     8   ar
     9     8     9    2
    10     8    10   ar
    11    10    11   ar
    12     5    11   ar
    13     1    12    1
    14     1    13    1
    15     1    14    1
    16     4    15    1
    17     7    16    1
    18    11    17    1
