@<TRIPOS>MOLECULE
Cn1c(=O)ncc2oncc12
 16 17 0 0 0
SMALL
GASTEIGER
Energy = 0

@<TRIPOS>ATOM
      1 C          -0.3114   -1.4366    0.0000 C.3     1  LIG1        0.0169
      2 N          -0.3114   -0.6116    0.0000 N.ar    1  LIG1       -0.2908
      3 C          -1.0259   -0.1991    0.0000 C.ar    1  LIG1        0.3488
      4 O          -1.7403   -0.6116    0.0000 O.2     1  LIG1       -0.2445
      5 N          -1.0259    0.6259    0.0000 N.ar    1  LIG1       -0.1976
      6 C          -0.3114    1.0384    0.0000 C.ar    1  LIG1        0.0800
      7 C           0.4031    0.6259    0.0000 C.ar    1  LIG1        0.2017
      8 C           0.4031   -0.1991    0.0000 C.ar    1  LIG1        0.1139
      9 C           1.1877   -0.4540    0.0000 C.ar    1  LIG1        0.0944
     10 N           1.6726    0.2134    0.0000 N.ar    1  LIG1       -0.0839
     11 O           1.1877    0.8809    0.0000 O.2     1  LIG1       -0.3516
     12 H          -1.3860   -1.8171    0.0000 H       1  LIG1        0.0457
     13 H           0.2471   -1.8313    0.9121 H       1  LIG1        0.0457
     14 H           0.2188   -1.8113   -0.9370 H       1  LIG1        0.0457
     15 H          -0.3114    2.1399    0.0000 H       1  LIG1        0.0870
     16 H           1.5281   -1.5016    0.0000 H       1  LIG1        0.0885
@<TRIPOS>BOND
     1     1     2    1
     2     2     3   ar
     3     3     4    2
     4     3     5   ar
     5     5     6   ar
     6     6     7   ar
     7     7     8   ar
     8     2     8   ar
     9     8     9   ar
    10     9    10   ar
    11    10    11   ar
    12     7    11   ar
    13     1    12    1
    14     1    13    1
    15     1    14    1
    16     6    15    1
    17     9    16    1
