@<TRIPOS>MOLECULE
Cn1cncc2ccnc12
 17 18 0 0 0
SMALL
GASTEIGER
Energy = 0

@<TRIPOS>ATOM
      1 C           0.4870   -1.4757    0.0000 C.3     1  LIG1        0.0146
      2 N           0.4870   -0.6507    0.0000 N.ar    1  LIG1       -0.3194
      3 C           1.2015   -0.2382    0.0000 C.ar    1  LIG1        0.0971
      4 N           1.2015    0.5868    0.0000 N.ar    1  LIG1       -0.2448
      5 C           0.4870    0.9993    0.0000 C.ar    1  LIG1        0.0399
      6 C          -0.2275    0.5868    0.0000 C.ar    1  LIG1        0.0370
      7 C          -1.0121    0.8417    0.0000 C.ar    1  LIG1       -0.0315
      8 C          -1.4970    0.1743    0.0000 C.ar    1  LIG1        0.0306
      9 N          -1.0121   -0.4932    0.0000 N.ar    1  LIG1       -0.2372
     10 C          -0.2275   -0.2382    0.0000 C.ar    1  LIG1        0.1430
     11 H           1.5616   -1.8562    0.0000 H       1  LIG1        0.0457
     12 H          -0.0715   -1.8704   -0.9121 H       1  LIG1        0.0457
     13 H          -0.0432   -1.8504    0.9370 H       1  LIG1        0.0457
     14 H           2.1554   -0.7890    0.0000 H       1  LIG1        0.1029
     15 H           0.4870    2.1008    0.0000 H       1  LIG1        0.0837
     16 H          -1.3525    1.8893    0.0000 H       1  LIG1        0.0640
     17 H          -2.5985    0.1743    0.0000 H       1  LIG1        0.0830
@<TRIPOS>BOND
     1     1     2    1
     2     2     3   ar
     3     3     4   ar
     4     4     5   ar
     5     5     6   ar
     6     6     7   ar
     7     7     8   ar
     8     8     9   ar
     9     9    10   ar
    10     2    10   ar
    11     6    10   ar
    12     1    11    1
    13     1    12    1
    14     1    13    1
    15     3    14    1
    16     5    15    1
    17     7    16    1
    18     8    17    1
