@<TRIPOS>MOLECULE
O=c1ccn2ccoc2n1
 14 15 0 0 0
SMALL
GASTEIGER
Energy = 0

@<TRIPOS>ATOM
      1 O           1.7650   -0.6987    0.0000 O.2     1  LIG1       -0.2657
      2 C           1.0505   -0.2862    0.0000 C.ar    1  LIG1        0.2759
      3 C           1.0505    0.5388    0.0000 C.ar    1  LIG1        0.0214
      4 C           0.3360    0.9513    0.0000 C.ar    1  LIG1        0.0193
      5 N          -0.3784    0.5388    0.0000 N.ar    1  LIG1       -0.2746
      6 C          -1.1631    0.7938    0.0000 C.ar    1  LIG1        0.0489
      7 C          -1.6480    0.1263    0.0000 C.ar    1  LIG1        0.1124
      8 O          -1.1631   -0.5411    0.0000 O.2     1  LIG1       -0.4308
      9 C          -0.3784   -0.2862    0.0000 C.ar    1  LIG1        0.3105
     10 N           0.3360   -0.6987    0.0000 N.ar    1  LIG1       -0.1565
     11 H           2.0044    1.0896    0.0000 H       1  LIG1        0.0687
     12 H           0.3360    2.0528    0.0000 H       1  LIG1        0.0816
     13 H          -1.5035    1.8414    0.0000 H       1  LIG1        0.0845
     14 H          -2.7495    0.1263    0.0000 H       1  LIG1        0.1046
@<TRIPOS>BOND
     1     1     2    2
     2     2     3   ar
     3     3     4   ar
     4     4     5   ar
     5     5     6   ar
     6     6     7   ar
     7     7     8   ar
     8     8     9   ar
     9     5     9   ar
    10     9    10   ar
    11     2    10   ar
    12     3    11    1
    13     4    12    1
    14     6    13    1
    15     7    14    1
