@<TRIPOS>MOLECULE
c1cc2[nH]ccc2[nH]1
 14 15 0 0 0
SMALL
GASTEIGER
Energy = 0

@<TRIPOS>ATOM
      1 N           0.7846   -0.6674    0.0000 N.ar    1  LIG1       -0.3594
      2 C           1.2695   -0.0000    0.0000 C.ar    1  LIG1        0.0042
      3 C           0.7846    0.6674    0.0000 C.ar    1  LIG1       -0.0204
      4 C           0.0000    0.4125    0.0000 C.ar    1  LIG1        0.0642
      5 C           0.0000   -0.4125    0.0000 C.ar    1  LIG1        0.0642
      6 C          -0.7846   -0.6674    0.0000 C.ar    1  LIG1       -0.0204
      7 C          -1.2695    0.0000    0.0000 C.ar    1  LIG1        0.0042
      8 N          -0.7846    0.6674    0.0000 N.ar    1  LIG1       -0.3594
      9 H           1.1191   -1.6969    0.0000 H       1  LIG1        0.1654
     10 H           2.3710    0.0000    0.0000 H       1  LIG1        0.0807
     11 H           1.1250    1.7150    0.0000 H       1  LIG1        0.0653
     12 H          -1.1250   -1.7150    0.0000 H       1  LIG1        0.0653
     13 H          -2.3710    0.0000    0.0000 H       1  LIG1        0.0807
     14 H          -1.1191    1.6969    0.0000 H       1  LIG1        0.1654
@<TRIPOS>BOND
     1     1     2   ar
     2     2     3   ar
     3     3     4   ar
     4     4     5   ar
     5     1     5   ar
     6     5     6   ar
     7     6     7   ar
     8     7     8   ar
     9     4     8   ar
    10     1     9    1
    11     2    10    1
    12     3    11    1
    13     6    12    1
    14     7    13    1
    15     8    14    1
