@<TRIPOS>MOLECULE
c1cncnc1
 10 10 0 0 0
SMALL
GASTEIGER
Energy = 0

@<TRIPOS>ATOM
      1 C          -0.0000   -0.8467    0.0000 C.ar    1  LIG1       -0.0254
      2 C           0.7145   -0.4342    0.0000 C.ar    1  LIG1        0.0307
      3 N           0.7145    0.3908    0.0000 N.ar    1  LIG1       -0.2437
      4 C           0.0000    0.8033    0.0000 C.ar    1  LIG1        0.1159
      5 N          -0.7145    0.3908    0.0000 N.ar    1  LIG1       -0.2437
      6 C          -0.7145   -0.4342    0.0000 C.ar    1  LIG1        0.0307
      7 H           0.0000   -1.9482    0.0000 H       1  LIG1        0.0648
      8 H           1.6684   -0.9850    0.0000 H       1  LIG1        0.0830
      9 H           0.0000    1.9048    0.0000 H       1  LIG1        0.1047
     10 H          -1.6684   -0.9850    0.0000 H       1  LIG1        0.0830
@<TRIPOS>BOND
     1     1     2   ar
     2     2     3   ar
     3     3     4   ar
     4     4     5   ar
     5     5     6   ar
     6     1     6   ar
     7     1     7    1
     8     2     8    1
     9     4     9    1
    10     6    10    1
