@<TRIPOS>MOLECULE
Cn1ccc(=O)c2cnsc12
 17 18 0 0 0
SMALL
GASTEIGER
Energy = 0

@<TRIPOS>ATOM
      1 C          -0.5861   -1.5972    0.0000 C.3     1  LIG1        0.0124
      2 N          -0.5861   -0.7722    0.0000 N.ar    1  LIG1       -0.3430
      3 C          -1.3006   -0.3597    0.0000 C.ar    1  LIG1        0.0089
      4 C          -1.3006    0.4653    0.0000 C.ar    1  LIG1        0.0019
      5 C          -0.5861    0.8778    0.0000 C.ar    1  LIG1        0.1914
      6 O          -0.5861    1.7028    0.0000 O.2     1  LIG1       -0.2871
      7 C           0.1284    0.4653    0.0000 C.ar    1  LIG1        0.0721
      8 C           0.1284   -0.3597    0.0000 C.ar    1  LIG1        0.1107
      9 S           0.9130   -0.6147    0.0000 S.2     1  LIG1        0.0299
     10 N           1.3979    0.0528    0.0000 N.ar    1  LIG1       -0.2160
     11 C           0.9130    0.7202    0.0000 C.ar    1  LIG1        0.0495
     12 H          -1.6607   -1.9777    0.0000 H       1  LIG1        0.0456
     13 H          -0.0276   -1.9919    0.9121 H       1  LIG1        0.0456
     14 H          -0.0559   -1.9719   -0.9370 H       1  LIG1        0.0456
     15 H          -2.2545   -0.9105    0.0000 H       1  LIG1        0.0810
     16 H          -2.2545    1.0161    0.0000 H       1  LIG1        0.0670
     17 H           1.2534    1.7678    0.0000 H       1  LIG1        0.0844
@<TRIPOS>BOND
     1     1     2    1
     2     2     3   ar
     3     3     4   ar
     4     4     5   ar
     5     5     6    2
     6     5     7   ar
     7     7     8   ar
     8     2     8   ar
     9     8     9   ar
    10     9    10   ar
    11    10    11   ar
    12     7    11   ar
    13     1    12    1
    14     1    13    1
    15     1    14    1
    16     3    15    1
    17     4    16    1
    18    11    17    1
