@<TRIPOS>MOLECULE
O=c1[nH]nnc2ncccc12
 15 16 0 0 0
SMALL
GASTEIGER
Energy = 0

@<TRIPOS>ATOM
      1 O           0.5955   -1.4896    0.0000 O.2     1  LIG1       -0.2656
      2 C           0.5955   -0.6646    0.0000 C.ar    1  LIG1        0.2767
      3 N           1.3100   -0.2521    0.0000 N.ar    1  LIG1       -0.2240
      4 N           1.3100    0.5729    0.0000 N.ar    1  LIG1       -0.0634
      5 N           0.5955    0.9854    0.0000 N.ar    1  LIG1       -0.1108
      6 C          -0.1189    0.5729    0.0000 C.ar    1  LIG1        0.1887
      7 N          -0.8334    0.9854    0.0000 N.ar    1  LIG1       -0.2341
      8 C          -1.5479    0.5729    0.0000 C.ar    1  LIG1        0.0300
      9 C          -1.5479   -0.2521    0.0000 C.ar    1  LIG1       -0.0427
     10 C          -0.8334   -0.6646    0.0000 C.ar    1  LIG1       -0.0443
     11 C          -0.1189   -0.2521    0.0000 C.ar    1  LIG1        0.0866
     12 H           2.2475   -0.7934    0.0000 H       1  LIG1        0.1938
     13 H          -2.5018    1.1237    0.0000 H       1  LIG1        0.0830
     14 H          -2.5018   -0.8029    0.0000 H       1  LIG1        0.0633
     15 H          -0.8334   -1.7661    0.0000 H       1  LIG1        0.0627
@<TRIPOS>BOND
     1     1     2    2
     2     2     3   ar
     3     3     4   ar
     4     4     5   ar
     5     5     6   ar
     6     6     7   ar
     7     7     8   ar
     8     8     9   ar
     9     9    10   ar
    10    10    11   ar
    11     2    11   ar
    12     6    11   ar
    13     3    12    1
    14     8    13    1
    15     9    14    1
    16    10    15    1
