@<TRIPOS>MOLECULE
Cn1ccc2c(=O)[nH][nH]c(=O)c12
 19 20 0 0 0
SMALL
GASTEIGER
Energy = 0

@<TRIPOS>ATOM
      1 C           1.2414   -1.3333    0.0000 C.3     1  LIG1        0.0120
      2 N           0.9864   -0.5487    0.0000 N.ar    1  LIG1       -0.3453
      3 C           1.4714    0.1187    0.0000 C.ar    1  LIG1        0.0057
      4 C           0.9864    0.7862    0.0000 C.ar    1  LIG1       -0.0310
      5 C           0.2018    0.5312    0.0000 C.ar    1  LIG1        0.0708
      6 C           0.2018   -0.2938    0.0000 C.ar    1  LIG1        0.1206
      7 C          -0.5127   -0.7063    0.0000 C.ar    1  LIG1        0.2874
      8 O          -0.5127   -1.5313    0.0000 O.2     1  LIG1       -0.2642
      9 N          -1.2271   -0.2938    0.0000 N.ar    1  LIG1       -0.2616
     10 N          -1.2271    0.5312    0.0000 N.ar    1  LIG1       -0.2627
     11 C          -0.5127    0.9437    0.0000 C.ar    1  LIG1        0.2725
     12 O          -0.5127    1.7687    0.0000 O.2     1  LIG1       -0.2658
     13 H           2.3810   -1.3631    0.0000 H       1  LIG1        0.0456
     14 H           0.8323   -1.8813   -0.9121 H       1  LIG1        0.0456
     15 H           0.8529   -1.8536    0.9370 H       1  LIG1        0.0456
     16 H           2.5729    0.1187    0.0000 H       1  LIG1        0.0809
     17 H           1.3267    1.8338    0.0000 H       1  LIG1        0.0640
     18 H          -2.1646   -0.8350    0.0000 H       1  LIG1        0.1901
     19 H          -2.1646    1.0724    0.0000 H       1  LIG1        0.1900
@<TRIPOS>BOND
     1     1     2    1
     2     2     3   ar
     3     3     4   ar
     4     4     5   ar
     5     5     6   ar
     6     2     6   ar
     7     6     7   ar
     8     7     8    2
     9     7     9   ar
    10     9    10   ar
    11    10    11   ar
    12     5    11   ar
    13    11    12    2
    14     1    13    1
    15     1    14    1
    16     1    15    1
    17     3    16    1
    18     4    17    1
    19     9    18    1
    20    10    19    1
