@<TRIPOS>MOLECULE
O=c1cnnc2sccn12
 13 14 0 0 0
SMALL
GASTEIGER
Energy = 0

@<TRIPOS>ATOM
      1 O           0.5988   -1.5743    0.0000 O.2     1  LIG1       -0.2656
      2 C           0.5988   -0.7493    0.0000 C.ar    1  LIG1        0.2772
      3 C           1.3133   -0.3368    0.0000 C.ar    1  LIG1        0.1148
      4 N           1.3133    0.4882    0.0000 N.ar    1  LIG1       -0.1497
      5 N           0.5988    0.9007    0.0000 N.ar    1  LIG1       -0.1233
      6 C          -0.1157    0.4882    0.0000 C.ar    1  LIG1        0.2012
      7 S          -0.9003    0.7431    0.0000 S.2     1  LIG1       -0.0560
      8 C          -1.3852    0.0757    0.0000 C.ar    1  LIG1       -0.0042
      9 C          -0.9003   -0.5917    0.0000 C.ar    1  LIG1        0.0218
     10 N          -0.1157   -0.3368    0.0000 N.ar    1  LIG1       -0.2594
     11 H           2.2672   -0.8876    0.0000 H       1  LIG1        0.0904
     12 H          -2.4867    0.0757    0.0000 H       1  LIG1        0.0709
     13 H          -1.2407   -1.6393    0.0000 H       1  LIG1        0.0820
@<TRIPOS>BOND
     1     1     2    2
     2     2     3   ar
     3     3     4   ar
     4     4     5   ar
     5     5     6   ar
     6     6     7   ar
     7     7     8   ar
     8     8     9   ar
     9     9    10   ar
    10     2    10   ar
    11     6    10   ar
    12     3    11    1
    13     8    12    1
    14     9    13    1
