@<TRIPOS>MOLECULE
c1nc2[nH]ncc2o1
 11 12 0 0 0
SMALL
GASTEIGER
Energy = 0

@<TRIPOS>ATOM
      1 N           0.7902   -0.6674    0.0000 N.ar    1  LIG1       -0.2576
      2 N           1.2752    0.0000    0.0000 N.ar    1  LIG1       -0.1767
      3 C           0.7902    0.6675    0.0000 C.ar    1  LIG1        0.0937
      4 C           0.0056    0.4125    0.0000 C.ar    1  LIG1        0.1928
      5 C           0.0056   -0.4125    0.0000 C.ar    1  LIG1        0.1944
      6 N          -0.7790   -0.6674    0.0000 N.ar    1  LIG1       -0.1969
      7 C          -1.2639    0.0000    0.0000 C.ar    1  LIG1        0.1847
      8 O          -0.7790    0.6675    0.0000 O.2     1  LIG1       -0.4392
      9 H           1.1247   -1.6969    0.0000 H       1  LIG1        0.1906
     10 H           1.1305    1.7151    0.0000 H       1  LIG1        0.0886
     11 H          -2.3654   -0.0000    0.0000 H       1  LIG1        0.1255
@<TRIPOS>BOND
     1     1     2   ar
     2     2     3   ar
     3     3     4   ar
     4     4     5   ar
     5     1     5   ar
     6     5     6   ar
     7     6     7   ar
     8     7     8   ar
     9     4     8   ar
    10     1     9    1
    11     3    10    1
    12     7    11    1
