@<TRIPOS>MOLECULE
Cn1c(=O)[nH]c2nccnc12
 17 18 0 0 0
SMALL
GASTEIGER
Energy = 0

@<TRIPOS>ATOM
      1 C           0.8391   -1.3310    0.0000 C.3     1  LIG1        0.0181
      2 N           0.5842   -0.5464    0.0000 N.ar    1  LIG1       -0.2787
      3 C           1.0691    0.1210    0.0000 C.ar    1  LIG1        0.3296
      4 O           1.8941    0.1210    0.0000 O.2     1  LIG1       -0.2465
      5 N           0.5842    0.7885    0.0000 N.ar    1  LIG1       -0.2895
      6 C          -0.2005    0.5335    0.0000 C.ar    1  LIG1        0.1781
      7 N          -0.9149    0.9460    0.0000 N.ar    1  LIG1       -0.2331
      8 C          -1.6294    0.5335    0.0000 C.ar    1  LIG1        0.0481
      9 C          -1.6294   -0.2915    0.0000 C.ar    1  LIG1        0.0481
     10 N          -0.9149   -0.7040    0.0000 N.ar    1  LIG1       -0.2329
     11 C          -0.2005   -0.2915    0.0000 C.ar    1  LIG1        0.1802
     12 H           1.9787   -1.3609    0.0000 H       1  LIG1        0.0458
     13 H           0.4299   -1.8789   -0.9121 H       1  LIG1        0.0458
     14 H           0.4506   -1.8512    0.9370 H       1  LIG1        0.0458
     15 H           0.9187    1.8180    0.0000 H       1  LIG1        0.1719
     16 H          -2.5833    1.0843    0.0000 H       1  LIG1        0.0846
     17 H          -2.5833   -0.8423    0.0000 H       1  LIG1        0.0846
@<TRIPOS>BOND
     1     1     2    1
     2     2     3   ar
     3     3     4    2
     4     3     5   ar
     5     5     6   ar
     6     6     7   ar
     7     7     8   ar
     8     8     9   ar
     9     9    10   ar
    10    10    11   ar
    11     2    11   ar
    12     6    11   ar
    13     1    12    1
    14     1    13    1
    15     1    14    1
    16     5    15    1
    17     8    16    1
    18     9    17    1
