@<TRIPOS>MOLECULE
Cn1ccc2cc(=O)[nH]cc12
 19 20 0 0 0
SMALL
GASTEIGER
Energy = 0

@<TRIPOS>ATOM
      1 C           1.3285   -1.4064    0.0000 C.3     1  LIG1        0.0119
      2 N           1.0736   -0.6218    0.0000 N.ar    1  LIG1       -0.3486
      3 C           1.5585    0.0457    0.0000 C.ar    1  LIG1        0.0054
      4 C           1.0736    0.7131    0.0000 C.ar    1  LIG1       -0.0362
      5 C           0.2890    0.4582    0.0000 C.ar    1  LIG1        0.0064
      6 C          -0.4255    0.8707    0.0000 C.ar    1  LIG1        0.0119
      7 C          -1.1400    0.4582    0.0000 C.ar    1  LIG1        0.2494
      8 O          -1.8544    0.8707    0.0000 O.2     1  LIG1       -0.2679
      9 N          -1.1400   -0.3668    0.0000 N.ar    1  LIG1       -0.3271
     10 C          -0.4255   -0.7793    0.0000 C.ar    1  LIG1        0.0290
     11 C           0.2890   -0.3668    0.0000 C.ar    1  LIG1        0.0652
     12 H           2.4681   -1.4363    0.0000 H       1  LIG1        0.0456
     13 H           0.9193   -1.9543   -0.9121 H       1  LIG1        0.0456
     14 H           0.9400   -1.9266    0.9370 H       1  LIG1        0.0456
     15 H           2.6600    0.0457    0.0000 H       1  LIG1        0.0809
     16 H           1.4140    1.7607    0.0000 H       1  LIG1        0.0639
     17 H          -0.4255    1.9722    0.0000 H       1  LIG1        0.0678
     18 H          -2.0775   -0.9081    0.0000 H       1  LIG1        0.1684
     19 H          -0.4255   -1.8808    0.0000 H       1  LIG1        0.0829
@<TRIPOS>BOND
     1     1     2    1
     2     2     3   ar
     3     3     4   ar
     4     4     5   ar
     5     5     6   ar
     6     6     7   ar
     7     7     8    2
     8     7     9   ar
     9     9    10   ar
    10    10    11   ar
    11     2    11   ar
    12     5    11   ar
    13     1    12    1
    14     1    13    1
    15     1    14    1
    16     3    15    1
    17     4    16    1
    18     6    17    1
    19     9    18    1
    20    10    19    1
