@<TRIPOS>MOLECULE
O=c1cc[nH]c2n[nH]cc12
 15 16 0 0 0
SMALL
GASTEIGER
Energy = 0

@<TRIPOS>ATOM
      1 O           0.5135   -1.4700    0.0000 O.2     1  LIG1       -0.2871
      2 C           0.5135   -0.6450    0.0000 C.ar    1  LIG1        0.1924
      3 C           1.2279   -0.2325    0.0000 C.ar    1  LIG1        0.0018
      4 C           1.2279    0.5925    0.0000 C.ar    1  LIG1        0.0072
      5 N           0.5135    1.0050    0.0000 N.ar    1  LIG1       -0.3443
      6 C          -0.2010    0.5925    0.0000 C.ar    1  LIG1        0.1632
      7 N          -0.9856    0.8475    0.0000 N.ar    1  LIG1       -0.1556
      8 N          -1.4706    0.1800    0.0000 N.ar    1  LIG1       -0.2820
      9 C          -0.9856   -0.4874    0.0000 C.ar    1  LIG1        0.0353
     10 C          -0.2010   -0.2325    0.0000 C.ar    1  LIG1        0.0830
     11 H           2.1818   -0.7832    0.0000 H       1  LIG1        0.0670
     12 H           2.1818    1.1432    0.0000 H       1  LIG1        0.0808
     13 H           0.5135    2.0875    0.0000 H       1  LIG1        0.1668
     14 H          -2.5531    0.1800    0.0000 H       1  LIG1        0.1883
     15 H          -1.3259   -1.5350    0.0000 H       1  LIG1        0.0831
@<TRIPOS>BOND
     1     1     2    2
     2     2     3   ar
     3     3     4   ar
     4     4     5   ar
     5     5     6   ar
     6     6     7   ar
     7     7     8   ar
     8     8     9   ar
     9     9    10   ar
    10     2    10   ar
    11     6    10   ar
    12     3    11    1
    13     4    12    1
    14     5    13    1
    15     8    14    1
    16     9    15    1
