@<TRIPOS>MOLECULE
O=c1cc[nH]c2nccnc12
 16 17 0 0 0
SMALL
GASTEIGER
Energy = 0

@<TRIPOS>ATOM
      1 O           0.6441   -1.4758    0.0000 O.2     1  LIG1       -0.2855
      2 C           0.6441   -0.6508    0.0000 C.ar    1  LIG1        0.2091
      3 C           1.3585   -0.2383    0.0000 C.ar    1  LIG1        0.0033
      4 C           1.3585    0.5867    0.0000 C.ar    1  LIG1        0.0072
      5 N           0.6441    0.9992    0.0000 N.ar    1  LIG1       -0.3444
      6 C          -0.0704    0.5867    0.0000 C.ar    1  LIG1        0.1603
      7 N          -0.7849    0.9992    0.0000 N.ar    1  LIG1       -0.2343
      8 C          -1.4994    0.5867    0.0000 C.ar    1  LIG1        0.0480
      9 C          -1.4994   -0.2383    0.0000 C.ar    1  LIG1        0.0466
     10 N          -0.7849   -0.6508    0.0000 N.ar    1  LIG1       -0.2466
     11 C          -0.0704   -0.2383    0.0000 C.ar    1  LIG1        0.1525
     12 H           2.3124   -0.7890    0.0000 H       1  LIG1        0.0671
     13 H           2.3124    1.1374    0.0000 H       1  LIG1        0.0808
     14 H           0.6441    2.0817    0.0000 H       1  LIG1        0.1668
     15 H          -2.4533    1.1375    0.0000 H       1  LIG1        0.0846
     16 H          -2.4533   -0.7891    0.0000 H       1  LIG1        0.0845
@<TRIPOS>BOND
     1     1     2    2
     2     2     3   ar
     3     3     4   ar
     4     4     5   ar
     5     5     6   ar
     6     6     7   ar
     7     7     8   ar
     8     8     9   ar
     9     9    10   ar
    10    10    11   ar
    11     2    11   ar
    12     6    11   ar
    13     3    12    1
    14     4    13    1
    15     5    14    1
    16     8    15    1
    17     9    16    1
