@<TRIPOS>MOLECULE
O=c1[nH]nc2[nH]cncc12
 14 15 0 0 0
SMALL
GASTEIGER
Energy = 0

@<TRIPOS>ATOM
      1 O           1.0467   -1.2925    0.0000 O.2     1  LIG1       -0.2656
      2 C           0.7917   -0.5079    0.0000 C.ar    1  LIG1        0.2769
      3 N           1.2766    0.1596    0.0000 N.ar    1  LIG1       -0.2407
      4 N           0.7917    0.8270    0.0000 N.ar    1  LIG1       -0.1525
      5 C           0.0071    0.5721    0.0000 C.ar    1  LIG1        0.1660
      6 N          -0.7074    0.9846    0.0000 N.ar    1  LIG1       -0.3290
      7 C          -1.4218    0.5721    0.0000 C.ar    1  LIG1        0.0948
      8 N          -1.4218   -0.2529    0.0000 N.ar    1  LIG1       -0.2448
      9 C          -0.7074   -0.6654    0.0000 C.ar    1  LIG1        0.0452
     10 C           0.0071   -0.2529    0.0000 C.ar    1  LIG1        0.1026
     11 H           2.3591    0.1596    0.0000 H       1  LIG1        0.1922
     12 H          -0.7074    2.0671    0.0000 H       1  LIG1        0.1682
     13 H          -2.3757    1.1228    0.0000 H       1  LIG1        0.1027
     14 H          -0.7074   -1.7669    0.0000 H       1  LIG1        0.0839
@<TRIPOS>BOND
     1     1     2    2
     2     2     3   ar
     3     3     4   ar
     4     4     5   ar
     5     5     6   ar
     6     6     7   ar
     7     7     8   ar
     8     8     9   ar
     9     9    10   ar
    10     2    10   ar
    11     5    10   ar
    12     3    11    1
    13     6    12    1
    14     7    13    1
    15     9    14    1
