@<TRIPOS>MOLECULE
Cn1scnc1=O
 11 11 0 0 0
SMALL
GASTEIGER
Energy = 0

@<TRIPOS>ATOM
      1 C          -0.2972   -1.2227    0.0000 C.3     1  LIG1        0.0235
      2 N          -0.0423   -0.4381    0.0000 N.ar    1  LIG1       -0.2645
      3 S           0.7423   -0.1831    0.0000 S.2     1  LIG1        0.0043
      4 C           0.7423    0.6419    0.0000 C.ar    1  LIG1        0.0868
      5 N          -0.0423    0.8968    0.0000 N.ar    1  LIG1       -0.1924
      6 C          -0.5272    0.2294    0.0000 C.ar    1  LIG1        0.3548
      7 O          -1.3522    0.2294    0.0000 O.2     1  LIG1       -0.2439
      8 H           0.6072   -1.9167    0.0000 H       1  LIG1        0.0463
      9 H          -0.9503   -1.4255   -0.9121 H       1  LIG1        0.0463
     10 H          -0.9173   -1.4153    0.9370 H       1  LIG1        0.0463
     11 H           1.6334    1.2894    0.0000 H       1  LIG1        0.0923
@<TRIPOS>BOND
     1     1     2    1
     2     2     3   ar
     3     3     4   ar
     4     4     5   ar
     5     5     6   ar
     6     2     6   ar
     7     6     7    2
     8     1     8    1
     9     1     9    1
    10     1    10    1
    11     4    11    1
