@<TRIPOS>MOLECULE
O=c1cc[nH]c2cccn12
 16 17 0 0 0
SMALL
GASTEIGER
Energy = 0

@<TRIPOS>ATOM
      1 O           0.4783   -1.4503    0.0000 O.2     1  LIG1       -0.2672
      2 C           0.4783   -0.6253    0.0000 C.ar    1  LIG1        0.2581
      3 C           1.1928   -0.2128    0.0000 C.ar    1  LIG1        0.0193
      4 C           1.1928    0.6122    0.0000 C.ar    1  LIG1        0.0085
      5 N           0.4783    1.0247    0.0000 N.ar    1  LIG1       -0.3471
      6 C          -0.2362    0.6122    0.0000 C.ar    1  LIG1        0.1180
      7 C          -1.0208    0.8671    0.0000 C.ar    1  LIG1       -0.0192
      8 C          -1.5057    0.1997    0.0000 C.ar    1  LIG1       -0.0417
      9 C          -1.0208   -0.4678    0.0000 C.ar    1  LIG1        0.0147
     10 N          -0.2362   -0.2128    0.0000 N.ar    1  LIG1       -0.2697
     11 H           2.1467   -0.7636    0.0000 H       1  LIG1        0.0686
     12 H           2.1467    1.1630    0.0000 H       1  LIG1        0.0809
     13 H           0.4783    2.1072    0.0000 H       1  LIG1        0.1667
     14 H          -1.3612    1.9147    0.0000 H       1  LIG1        0.0654
     15 H          -2.6072    0.1997    0.0000 H       1  LIG1        0.0633
     16 H          -1.3612   -1.5154    0.0000 H       1  LIG1        0.0814
@<TRIPOS>BOND
     1     1     2    2
     2     2     3   ar
     3     3     4   ar
     4     4     5   ar
     5     5     6   ar
     6     6     7   ar
     7     7     8   ar
     8     8     9   ar
     9     9    10   ar
    10     2    10   ar
    11     6    10   ar
    12     3    11    1
    13     4    12    1
    14     5    13    1
    15     7    14    1
    16     8    15    1
    17     9    16    1
