@<TRIPOS>MOLECULE
O=c1oc2ccccc2o1
 14 15 0 0 0
SMALL
GASTEIGER
Energy = 0

@<TRIPOS>ATOM
      1 O           1.9251    0.0000    0.0000 O.2     1  LIG1       -0.2021
      2 C           1.1001    0.0000    0.0000 C.ar    1  LIG1        0.5213
      3 O           0.6152    0.6674    0.0000 O.2     1  LIG1       -0.3908
      4 C          -0.1694    0.4125    0.0000 C.ar    1  LIG1        0.1773
      5 C          -0.8839    0.8250    0.0000 C.ar    1  LIG1       -0.0154
      6 C          -1.5984    0.4125    0.0000 C.ar    1  LIG1       -0.0580
      7 C          -1.5984   -0.4125    0.0000 C.ar    1  LIG1       -0.0580
      8 C          -0.8839   -0.8250    0.0000 C.ar    1  LIG1       -0.0154
      9 C          -0.1694   -0.4125    0.0000 C.ar    1  LIG1        0.1773
     10 O           0.6152   -0.6674    0.0000 O.2     1  LIG1       -0.3908
     11 H          -0.8839    1.9265    0.0000 H       1  LIG1        0.0655
     12 H          -2.5523    0.9633    0.0000 H       1  LIG1        0.0619
     13 H          -2.5523   -0.9633    0.0000 H       1  LIG1        0.0619
     14 H          -0.8839   -1.9265    0.0000 H       1  LIG1        0.0655
@<TRIPOS>BOND
     1     1     2    2
     2     2     3   ar
     3     3     4   ar
     4     4     5   ar
     5     5     6   ar
     6     6     7   ar
     7     7     8   ar
     8     8     9   ar
     9     4     9   ar
    10     9    10   ar
    11     2    10   ar
    12     5    11    1
    13     6    12    1
    14     7    13    1
    15     8    14    1
