@<TRIPOS>MOLECULE
c1ncc2[nH][nH]cc12
 13 14 0 0 0
SMALL
GASTEIGER
Energy = 0

@<TRIPOS>ATOM
      1 N           1.2542   -0.0131    0.0000 N.ar    1  LIG1       -0.3061
      2 N           0.7693    0.6544    0.0000 N.ar    1  LIG1       -0.2981
      3 C          -0.0153    0.3994    0.0000 C.ar    1  LIG1        0.0830
      4 C          -0.8000    0.6544    0.0000 C.ar    1  LIG1        0.0529
      5 N          -1.2849   -0.0131    0.0000 N.ar    1  LIG1       -0.2605
      6 C          -0.8000   -0.6805    0.0000 C.ar    1  LIG1        0.0383
      7 C          -0.0153   -0.4256    0.0000 C.ar    1  LIG1        0.0366
      8 C           0.7693   -0.6805    0.0000 C.ar    1  LIG1        0.0294
      9 H           2.3367   -0.0131    0.0000 H       1  LIG1        0.1860
     10 H           1.1038    1.6839    0.0000 H       1  LIG1        0.1868
     11 H          -1.1404    1.7020    0.0000 H       1  LIG1        0.0851
     12 H          -1.1404   -1.7281    0.0000 H       1  LIG1        0.0837
     13 H           1.1097   -1.7281    0.0000 H       1  LIG1        0.0830
@<TRIPOS>BOND
     1     1     2   ar
     2     2     3   ar
     3     3     4   ar
     4     4     5   ar
     5     5     6   ar
     6     6     7   ar
     7     3     7   ar
     8     7     8   ar
     9     1     8   ar
    10     1     9    1
    11     2    10    1
    12     4    11    1
    13     6    12    1
    14     8    13    1
