@<TRIPOS>MOLECULE
c1cc2ccnnc2o1
 13 14 0 0 0
SMALL
GASTEIGER
Energy = 0

@<TRIPOS>ATOM
      1 O           0.9443   -0.6232    0.0000 O.2     1  LIG1       -0.4440
      2 C           1.4293    0.0442    0.0000 C.ar    1  LIG1        0.0951
      3 C           0.9443    0.7117    0.0000 C.ar    1  LIG1       -0.0144
      4 C           0.1597    0.4567    0.0000 C.ar    1  LIG1        0.0428
      5 C          -0.5547    0.8692    0.0000 C.ar    1  LIG1       -0.0295
      6 C          -1.2692    0.4567    0.0000 C.ar    1  LIG1        0.0508
      7 N          -1.2692   -0.3683    0.0000 N.ar    1  LIG1       -0.1542
      8 N          -0.5547   -0.7808    0.0000 N.ar    1  LIG1       -0.1106
      9 C           0.1597   -0.3683    0.0000 C.ar    1  LIG1        0.2465
     10 H           2.5308    0.0442    0.0000 H       1  LIG1        0.1030
     11 H           1.2846    1.7593    0.0000 H       1  LIG1        0.0656
     12 H          -0.5547    1.9707    0.0000 H       1  LIG1        0.0641
     13 H          -2.2231    1.0075    0.0000 H       1  LIG1        0.0848
@<TRIPOS>BOND
     1     1     2   ar
     2     2     3   ar
     3     3     4   ar
     4     4     5   ar
     5     5     6   ar
     6     6     7   ar
     7     7     8   ar
     8     8     9   ar
     9     1     9   ar
    10     4     9   ar
    11     2    10    1
    12     3    11    1
    13     5    12    1
    14     6    13    1
