@<TRIPOS>MOLECULE
O=c1cc[nH]c2ncoc12
 14 15 0 0 0
SMALL
GASTEIGER
Energy = 0

@<TRIPOS>ATOM
      1 O          -0.5210   -1.4525    0.0000 O.2     1  LIG1       -0.2838
      2 C          -0.5210   -0.6275    0.0000 C.ar    1  LIG1        0.2259
      3 C          -1.2355   -0.2150    0.0000 C.ar    1  LIG1        0.0049
      4 C          -1.2355    0.6100    0.0000 C.ar    1  LIG1        0.0073
      5 N          -0.5210    1.0225    0.0000 N.ar    1  LIG1       -0.3431
      6 C           0.1935    0.6100    0.0000 C.ar    1  LIG1        0.1807
      7 C           0.1935   -0.2150    0.0000 C.ar    1  LIG1        0.2182
      8 O           0.9781   -0.4700    0.0000 O.2     1  LIG1       -0.4370
      9 C           1.4630    0.1975    0.0000 C.ar    1  LIG1        0.1847
     10 N           0.9781    0.8649    0.0000 N.ar    1  LIG1       -0.1982
     11 H          -2.1894   -0.7658    0.0000 H       1  LIG1        0.0671
     12 H          -2.1894    1.1608    0.0000 H       1  LIG1        0.0808
     13 H          -0.5210    2.1050    0.0000 H       1  LIG1        0.1669
     14 H           2.5645    0.1975    0.0000 H       1  LIG1        0.1255
@<TRIPOS>BOND
     1     1     2    2
     2     2     3   ar
     3     3     4   ar
     4     4     5   ar
     5     5     6   ar
     6     6     7   ar
     7     2     7   ar
     8     7     8   ar
     9     8     9   ar
    10     9    10   ar
    11     6    10   ar
    12     3    11    1
    13     4    12    1
    14     5    13    1
    15     9    14    1
