@<TRIPOS>MOLECULE
Cn1ncc2[nH]ccc12
 16 17 0 0 0
SMALL
GASTEIGER
Energy = 0

@<TRIPOS>ATOM
      1 C           0.9079   -1.2992    0.0000 C.3     1  LIG1        0.0309
      2 N           0.6530   -0.5146    0.0000 N.ar    1  LIG1       -0.2652
      3 N           1.1379    0.1529    0.0000 N.ar    1  LIG1       -0.1772
      4 C           0.6530    0.8203    0.0000 C.ar    1  LIG1        0.0733
      5 C          -0.1317    0.5654    0.0000 C.ar    1  LIG1        0.0845
      6 C          -0.1317   -0.2596    0.0000 C.ar    1  LIG1        0.0861
      7 C          -0.9163   -0.5146    0.0000 C.ar    1  LIG1       -0.0187
      8 C          -1.4012    0.1529    0.0000 C.ar    1  LIG1        0.0043
      9 N          -0.9163    0.8203    0.0000 N.ar    1  LIG1       -0.3582
     10 H           2.0475   -1.3291    0.0000 H       1  LIG1        0.0473
     11 H           0.4987   -1.8471   -0.9121 H       1  LIG1        0.0473
     12 H           0.5194   -1.8194    0.9370 H       1  LIG1        0.0473
     13 H           0.9934    1.8679    0.0000 H       1  LIG1        0.0869
     14 H          -1.2567   -1.5622    0.0000 H       1  LIG1        0.0654
     15 H          -2.5027    0.1529    0.0000 H       1  LIG1        0.0807
     16 H          -1.2508    1.8498    0.0000 H       1  LIG1        0.1654
@<TRIPOS>BOND
     1     1     2    1
     2     2     3   ar
     3     3     4   ar
     4     4     5   ar
     5     5     6   ar
     6     2     6   ar
     7     6     7   ar
     8     7     8   ar
     9     8     9   ar
    10     5     9   ar
    11     1    10    1
    12     1    11    1
    13     1    12    1
    14     4    13    1
    15     7    14    1
    16     8    15    1
    17     9    16    1
