@<TRIPOS>MOLECULE
O=c1cc[nH]c2ccoc12
 15 16 0 0 0
SMALL
GASTEIGER
Energy = 0

@<TRIPOS>ATOM
      1 O          -0.5060   -1.4392    0.0000 O.2     1  LIG1       -0.2839
      2 C          -0.5060   -0.6142    0.0000 C.ar    1  LIG1        0.2242
      3 C          -1.2205   -0.2017    0.0000 C.ar    1  LIG1        0.0048
      4 C          -1.2205    0.6233    0.0000 C.ar    1  LIG1        0.0059
      5 N          -0.5060    1.0358    0.0000 N.ar    1  LIG1       -0.3580
      6 C           0.2085    0.6233    0.0000 C.ar    1  LIG1        0.0888
      7 C           0.2085   -0.2017    0.0000 C.ar    1  LIG1        0.1972
      8 O           0.9931   -0.4567    0.0000 O.2     1  LIG1       -0.4575
      9 C           1.4780    0.2108    0.0000 C.ar    1  LIG1        0.0948
     10 C           0.9931    0.8782    0.0000 C.ar    1  LIG1        0.0003
     11 H          -2.1744   -0.7525    0.0000 H       1  LIG1        0.0671
     12 H          -2.1744    1.1741    0.0000 H       1  LIG1        0.0808
     13 H          -0.5060    2.1183    0.0000 H       1  LIG1        0.1654
     14 H           2.5795    0.2108    0.0000 H       1  LIG1        0.1030
     15 H           1.3335    1.9258    0.0000 H       1  LIG1        0.0670
@<TRIPOS>BOND
     1     1     2    2
     2     2     3   ar
     3     3     4   ar
     4     4     5   ar
     5     5     6   ar
     6     6     7   ar
     7     2     7   ar
     8     7     8   ar
     9     8     9   ar
    10     9    10   ar
    11     6    10   ar
    12     3    11    1
    13     4    12    1
    14     5    13    1
    15     9    14    1
    16    10    15    1
