@<TRIPOS>MOLECULE
c1nc2nnnc2c[nH]1
 12 13 0 0 0
SMALL
GASTEIGER
Energy = 0

@<TRIPOS>ATOM
      1 N           1.2934   -0.4195    0.0000 N.ar    1  LIG1       -0.3501
      2 C           1.2934    0.4055    0.0000 C.ar    1  LIG1        0.0958
      3 N           0.5789    0.8180    0.0000 N.ar    1  LIG1       -0.2150
      4 C          -0.1355    0.4055    0.0000 C.ar    1  LIG1        0.2065
      5 N          -0.9202    0.6605    0.0000 N.ar    1  LIG1       -0.1075
      6 N          -1.4051   -0.0070    0.0000 N.ar    1  LIG1       -0.0405
      7 N          -0.9202   -0.6744    0.0000 N.ar    1  LIG1       -0.1246
      8 C          -0.1355   -0.4195    0.0000 C.ar    1  LIG1        0.1494
      9 C           0.5789   -0.8320    0.0000 C.ar    1  LIG1        0.0339
     10 H           2.2309   -0.9608    0.0000 H       1  LIG1        0.1662
     11 H           2.2473    0.9563    0.0000 H       1  LIG1        0.1027
     12 H           0.5789   -1.9335    0.0000 H       1  LIG1        0.0830
@<TRIPOS>BOND
     1     1     2   ar
     2     2     3   ar
     3     3     4   ar
     4     4     5   ar
     5     5     6   ar
     6     6     7   ar
     7     7     8   ar
     8     4     8   ar
     9     8     9   ar
    10     1     9   ar
    11     1    10    1
    12     2    11    1
    13     9    12    1
