@<TRIPOS>MOLECULE
c1cc2ccn[nH]c2n1
 14 15 0 0 0
SMALL
GASTEIGER
Energy = 0

@<TRIPOS>ATOM
      1 N           0.5382   -0.7917    0.0000 N.ar    1  LIG1       -0.2603
      2 N           1.2527   -0.3792    0.0000 N.ar    1  LIG1       -0.1806
      3 C           1.2527    0.4458    0.0000 C.ar    1  LIG1        0.0485
      4 C           0.5382    0.8583    0.0000 C.ar    1  LIG1       -0.0312
      5 C          -0.1762    0.4458    0.0000 C.ar    1  LIG1        0.0215
      6 C          -0.9608    0.7008    0.0000 C.ar    1  LIG1       -0.0328
      7 C          -1.4458    0.0333    0.0000 C.ar    1  LIG1        0.0306
      8 N          -0.9608   -0.6341    0.0000 N.ar    1  LIG1       -0.2361
      9 C          -0.1762   -0.3792    0.0000 C.ar    1  LIG1        0.1542
     10 H           0.5382   -1.8742    0.0000 H       1  LIG1        0.1905
     11 H           2.2066    0.9966    0.0000 H       1  LIG1        0.0847
     12 H           0.5382    1.9598    0.0000 H       1  LIG1        0.0640
     13 H          -1.3011    1.7484    0.0000 H       1  LIG1        0.0640
     14 H          -2.5473    0.0333    0.0000 H       1  LIG1        0.0830
@<TRIPOS>BOND
     1     1     2   ar
     2     2     3   ar
     3     3     4   ar
     4     4     5   ar
     5     5     6   ar
     6     6     7   ar
     7     7     8   ar
     8     8     9   ar
     9     1     9   ar
    10     5     9   ar
    11     1    10    1
    12     3    11    1
    13     4    12    1
    14     6    13    1
    15     7    14    1
