@<TRIPOS>MOLECULE
Cn1cnn2cccc2c1=O
 18 19 0 0 0
SMALL
GASTEIGER
Energy = 0

@<TRIPOS>ATOM
      1 C           1.7293   -0.5811    0.0000 C.3     1  LIG1        0.0162
      2 N           1.0148   -0.1686    0.0000 N.ar    1  LIG1       -0.2993
      3 C           1.0148    0.6564    0.0000 C.ar    1  LIG1        0.1194
      4 N           0.3003    1.0689    0.0000 N.ar    1  LIG1       -0.1565
      5 N          -0.4141    0.6564    0.0000 N.ar    1  LIG1       -0.2333
      6 C          -1.1987    0.9114    0.0000 C.ar    1  LIG1        0.0300
      7 C          -1.6837    0.2439    0.0000 C.ar    1  LIG1       -0.0414
      8 C          -1.1987   -0.4235    0.0000 C.ar    1  LIG1       -0.0295
      9 C          -0.4141   -0.1686    0.0000 C.ar    1  LIG1        0.1297
     10 C           0.3003   -0.5811    0.0000 C.ar    1  LIG1        0.2777
     11 O           0.3003   -1.4061    0.0000 O.2     1  LIG1       -0.2653
     12 H           2.5961    0.1593    0.0000 H       1  LIG1        0.0457
     13 H           1.7919   -1.2621   -0.9121 H       1  LIG1        0.0457
     14 H           1.7887   -1.2277    0.9370 H       1  LIG1        0.0457
     15 H           1.9687    1.2072    0.0000 H       1  LIG1        0.1048
     16 H          -1.5390    1.9590    0.0000 H       1  LIG1        0.0830
     17 H          -2.7852    0.2439    0.0000 H       1  LIG1        0.0633
     18 H          -1.5390   -1.4711    0.0000 H       1  LIG1        0.0641
@<TRIPOS>BOND
     1     1     2    1
     2     2     3   ar
     3     3     4   ar
     4     4     5   ar
     5     5     6   ar
     6     6     7   ar
     7     7     8   ar
     8     8     9   ar
     9     5     9   ar
    10     9    10   ar
    11     2    10   ar
    12    10    11    2
    13     1    12    1
    14     1    13    1
    15     1    14    1
    16     3    15    1
    17     6    16    1
    18     7    17    1
    19     8    18    1
