@<TRIPOS>MOLECULE
Cn1ccc2nccc2n1
 17 18 0 0 0
SMALL
GASTEIGER
Energy = 0

@<TRIPOS>ATOM
      1 C           1.7798   -0.7374    0.0000 C.3     1  LIG1        0.0302
      2 N           1.0653   -0.3249    0.0000 N.ar    1  LIG1       -0.2739
      3 C           1.0653    0.5001    0.0000 C.ar    1  LIG1        0.0258
      4 C           0.3509    0.9126    0.0000 C.ar    1  LIG1       -0.0164
      5 C          -0.3636    0.5001    0.0000 C.ar    1  LIG1        0.0923
      6 N          -1.1482    0.7550    0.0000 N.ar    1  LIG1       -0.2533
      7 C          -1.6331    0.0876    0.0000 C.ar    1  LIG1        0.0304
      8 C          -1.1482   -0.5798    0.0000 C.ar    1  LIG1       -0.0144
      9 C          -0.3636   -0.3249    0.0000 C.ar    1  LIG1        0.1109
     10 N           0.3509   -0.7374    0.0000 N.ar    1  LIG1       -0.1699
     11 H           2.6466    0.0030    0.0000 H       1  LIG1        0.0473
     12 H           1.8424   -1.4184   -0.9121 H       1  LIG1        0.0473
     13 H           1.8392   -1.3840    0.9370 H       1  LIG1        0.0473
     14 H           2.0192    1.0508    0.0000 H       1  LIG1        0.0826
     15 H           0.3509    2.0141    0.0000 H       1  LIG1        0.0654
     16 H          -2.7346    0.0876    0.0000 H       1  LIG1        0.0830
     17 H          -1.4886   -1.6274    0.0000 H       1  LIG1        0.0655
@<TRIPOS>BOND
     1     1     2    1
     2     2     3   ar
     3     3     4   ar
     4     4     5   ar
     5     5     6   ar
     6     6     7   ar
     7     7     8   ar
     8     8     9   ar
     9     5     9   ar
    10     9    10   ar
    11     2    10   ar
    12     1    11    1
    13     1    12    1
    14     1    13    1
    15     3    14    1
    16     4    15    1
    17     7    16    1
    18     8    17    1
