@<TRIPOS>MOLECULE
Cn1c(=O)ncc2n[nH]cc12
 17 18 0 0 0
SMALL
GASTEIGER
Energy = 0

@<TRIPOS>ATOM
      1 C           0.2950   -1.4244    0.0000 C.3     1  LIG1        0.0168
      2 N           0.2950   -0.5994    0.0000 N.ar    1  LIG1       -0.2922
      3 C           1.0095   -0.1869    0.0000 C.ar    1  LIG1        0.3487
      4 O           1.7239   -0.5994    0.0000 O.2     1  LIG1       -0.2445
      5 N           1.0095    0.6381    0.0000 N.ar    1  LIG1       -0.1991
      6 C           0.2950    1.0506    0.0000 C.ar    1  LIG1        0.0621
      7 C          -0.4195    0.6381    0.0000 C.ar    1  LIG1        0.1270
      8 N          -1.2041    0.8930    0.0000 N.ar    1  LIG1       -0.1708
      9 N          -1.6890    0.2256    0.0000 N.ar    1  LIG1       -0.2821
     10 C          -1.2041   -0.4418    0.0000 C.ar    1  LIG1        0.0466
     11 C          -0.4195   -0.1869    0.0000 C.ar    1  LIG1        0.0920
     12 H           1.3696   -1.8049    0.0000 H       1  LIG1        0.0457
     13 H          -0.2635   -1.8191   -0.9121 H       1  LIG1        0.0457
     14 H          -0.2352   -1.7991    0.9370 H       1  LIG1        0.0457
     15 H           0.2950    2.1521    0.0000 H       1  LIG1        0.0854
     16 H          -2.7715    0.2256    0.0000 H       1  LIG1        0.1883
     17 H          -1.5445   -1.4894    0.0000 H       1  LIG1        0.0845
@<TRIPOS>BOND
     1     1     2    1
     2     2     3   ar
     3     3     4    2
     4     3     5   ar
     5     5     6   ar
     6     6     7   ar
     7     7     8   ar
     8     8     9   ar
     9     9    10   ar
    10    10    11   ar
    11     2    11   ar
    12     7    11   ar
    13     1    12    1
    14     1    13    1
    15     1    14    1
    16     6    15    1
    17     9    16    1
    18    10    17    1
