@<TRIPOS>MOLECULE
Cn1ncc2conc2c1=O
 16 17 0 0 0
SMALL
GASTEIGER
Energy = 0

@<TRIPOS>ATOM
      1 C           1.7762   -0.5673    0.0000 C.3     1  LIG1        0.0340
      2 N           1.0617   -0.1548    0.0000 N.ar    1  LIG1       -0.2307
      3 N           1.0617    0.6702    0.0000 N.ar    1  LIG1       -0.1761
      4 C           0.3473    1.0827    0.0000 C.ar    1  LIG1        0.0605
      5 C          -0.3672    0.6702    0.0000 C.ar    1  LIG1        0.0660
      6 C          -1.1518    0.9251    0.0000 C.ar    1  LIG1        0.1336
      7 O          -1.6367    0.2577    0.0000 O.2     1  LIG1       -0.3616
      8 N          -1.1518   -0.4098    0.0000 N.ar    1  LIG1       -0.0728
      9 C          -0.3672   -0.1548    0.0000 C.ar    1  LIG1        0.1803
     10 C           0.3473   -0.5673    0.0000 C.ar    1  LIG1        0.2964
     11 O           0.3473   -1.3923    0.0000 O.2     1  LIG1       -0.2638
     12 H           2.6430    0.1731    0.0000 H       1  LIG1        0.0474
     13 H           1.8388   -1.2483   -0.9121 H       1  LIG1        0.0474
     14 H           1.8356   -1.2139    0.9370 H       1  LIG1        0.0474
     15 H           0.3473    2.1842    0.0000 H       1  LIG1        0.0855
     16 H          -1.4922    1.9727    0.0000 H       1  LIG1        0.1064
@<TRIPOS>BOND
     1     1     2    1
     2     2     3   ar
     3     3     4   ar
     4     4     5   ar
     5     5     6   ar
     6     6     7   ar
     7     7     8   ar
     8     8     9   ar
     9     5     9   ar
    10     9    10   ar
    11     2    10   ar
    12    10    11    2
    13     1    12    1
    14     1    13    1
    15     1    14    1
    16     4    15    1
    17     6    16    1
