@<TRIPOS>MOLECULE
c1cnc2nnncc2c1
 14 15 0 0 0
SMALL
GASTEIGER
Energy = 0

@<TRIPOS>ATOM
      1 C           1.4735   -0.4382    0.0000 C.ar    1  LIG1       -0.0428
      2 C           1.4735    0.3868    0.0000 C.ar    1  LIG1        0.0300
      3 N           0.7590    0.7993    0.0000 N.ar    1  LIG1       -0.2342
      4 C           0.0445    0.3868    0.0000 C.ar    1  LIG1        0.1850
      5 N          -0.6699    0.7993    0.0000 N.ar    1  LIG1       -0.1092
      6 N          -1.3844    0.3868    0.0000 N.ar    1  LIG1       -0.0413
      7 N          -1.3844   -0.4382    0.0000 N.ar    1  LIG1       -0.1370
      8 C          -0.6699   -0.8507    0.0000 C.ar    1  LIG1        0.0623
      9 C           0.0445   -0.4382    0.0000 C.ar    1  LIG1        0.0408
     10 C           0.7590   -0.8507    0.0000 C.ar    1  LIG1       -0.0480
     11 H           2.4274   -0.9890    0.0000 H       1  LIG1        0.0633
     12 H           2.4274    0.9376    0.0000 H       1  LIG1        0.0830
     13 H          -0.6699   -1.9522    0.0000 H       1  LIG1        0.0856
     14 H           0.7590   -1.9522    0.0000 H       1  LIG1        0.0626
@<TRIPOS>BOND
     1     1     2   ar
     2     2     3   ar
     3     3     4   ar
     4     4     5   ar
     5     5     6   ar
     6     6     7   ar
     7     7     8   ar
     8     8     9   ar
     9     4     9   ar
    10     9    10   ar
    11     1    10   ar
    12     1    11    1
    13     2    12    1
    14     8    13    1
    15    10    14    1
