@<TRIPOS>MOLECULE
c1nc[nH]n1
 8 8 0 0 0
SMALL
GASTEIGER
Energy = 0

@<TRIPOS>ATOM
      1 N          -0.2063   -0.6597    0.0000 N.ar    1  LIG1       -0.2655
      2 C           0.5784   -0.4048    0.0000 C.ar    1  LIG1        0.1113
      3 N           0.5784    0.4202    0.0000 N.ar    1  LIG1       -0.2231
      4 C          -0.2063    0.6751    0.0000 C.ar    1  LIG1        0.1377
      5 N          -0.6912    0.0077    0.0000 N.ar    1  LIG1       -0.1611
      6 H          -0.5408   -1.6892    0.0000 H       1  LIG1        0.1900
      7 H           1.4695   -1.0523    0.0000 H       1  LIG1        0.1041
      8 H          -0.5467    1.7227    0.0000 H       1  LIG1        0.1065
@<TRIPOS>BOND
     1     1     2   ar
     2     2     3   ar
     3     3     4   ar
     4     4     5   ar
     5     1     5   ar
     6     1     6    1
     7     2     7    1
     8     4     8    1
