@<TRIPOS>MOLECULE
O=c1ccc2nncnc2[nH]1
 15 16 0 0 0
SMALL
GASTEIGER
Energy = 0

@<TRIPOS>ATOM
      1 O           1.9351    0.7277    0.0000 O.2     1  LIG1       -0.2679
      2 C           1.2206    0.3152    0.0000 C.ar    1  LIG1        0.2503
      3 N           0.5062    0.7277    0.0000 N.ar    1  LIG1       -0.3057
      4 C          -0.2083    0.3152    0.0000 C.ar    1  LIG1        0.1627
      5 N          -0.9228    0.7277    0.0000 N.ar    1  LIG1       -0.2144
      6 C          -1.6372    0.3152    0.0000 C.ar    1  LIG1        0.1406
      7 N          -1.6372   -0.5098    0.0000 N.ar    1  LIG1       -0.1371
      8 N          -0.9228   -0.9223    0.0000 N.ar    1  LIG1       -0.1447
      9 C          -0.2083   -0.5098    0.0000 C.ar    1  LIG1        0.1286
     10 C           0.5062   -0.9223    0.0000 C.ar    1  LIG1       -0.0258
     11 C           1.2206   -0.5098    0.0000 C.ar    1  LIG1        0.0050
     12 H           0.5062    1.8102    0.0000 H       1  LIG1        0.1704
     13 H          -2.5911    0.8659    0.0000 H       1  LIG1        0.1066
     14 H           0.5062   -2.0238    0.0000 H       1  LIG1        0.0642
     15 H           2.1745   -1.0605    0.0000 H       1  LIG1        0.0672
@<TRIPOS>BOND
     1     1     2    2
     2     2     3   ar
     3     3     4   ar
     4     4     5   ar
     5     5     6   ar
     6     6     7   ar
     7     7     8   ar
     8     8     9   ar
     9     4     9   ar
    10     9    10   ar
    11    10    11   ar
    12     2    11   ar
    13     3    12    1
    14     6    13    1
    15    10    14    1
    16    11    15    1
