@<TRIPOS>MOLECULE
Cn1ccnc2ncnc12
 16 17 0 0 0
SMALL
GASTEIGER
Energy = 0

@<TRIPOS>ATOM
      1 C           0.5139   -1.4953    0.0000 C.3     1  LIG1        0.0134
      2 N           0.5139   -0.6703    0.0000 N.ar    1  LIG1       -0.3310
      3 C           1.2284   -0.2578    0.0000 C.ar    1  LIG1        0.0244
      4 C           1.2284    0.5672    0.0000 C.ar    1  LIG1        0.0462
      5 N           0.5139    0.9797    0.0000 N.ar    1  LIG1       -0.2317
      6 C          -0.2006    0.5672    0.0000 C.ar    1  LIG1        0.1974
      7 N          -0.9852    0.8222    0.0000 N.ar    1  LIG1       -0.2132
      8 C          -1.4701    0.1547    0.0000 C.ar    1  LIG1        0.1209
      9 N          -0.9852   -0.5127    0.0000 N.ar    1  LIG1       -0.2145
     10 C          -0.2006   -0.2578    0.0000 C.ar    1  LIG1        0.1796
     11 H           1.5885   -1.8758    0.0000 H       1  LIG1        0.0456
     12 H          -0.0446   -1.8900   -0.9121 H       1  LIG1        0.0456
     13 H          -0.0163   -1.8700    0.9370 H       1  LIG1        0.0456
     14 H           2.1823   -0.8086    0.0000 H       1  LIG1        0.0825
     15 H           2.1823    1.1180    0.0000 H       1  LIG1        0.0845
     16 H          -2.5716    0.1547    0.0000 H       1  LIG1        0.1048
@<TRIPOS>BOND
     1     1     2    1
     2     2     3   ar
     3     3     4   ar
     4     4     5   ar
     5     5     6   ar
     6     6     7   ar
     7     7     8   ar
     8     8     9   ar
     9     9    10   ar
    10     2    10   ar
    11     6    10   ar
    12     1    11    1
    13     1    12    1
    14     1    13    1
    15     3    14    1
    16     4    15    1
    17     8    16    1
