@<TRIPOS>MOLECULE
Cn1ccn2ccnc12
 16 17 0 0 0
SMALL
GASTEIGER
Energy = 0

@<TRIPOS>ATOM
      1 C           0.9301   -1.2831    0.0000 C.3     1  LIG1        0.0146
      2 N           0.6752   -0.4984    0.0000 N.ar    1  LIG1       -0.3195
      3 C           1.1601    0.1690    0.0000 C.ar    1  LIG1        0.0240
      4 C           0.6752    0.8364    0.0000 C.ar    1  LIG1        0.0287
      5 N          -0.1094    0.5815    0.0000 N.ar    1  LIG1       -0.2909
      6 C          -0.8941    0.8364    0.0000 C.ar    1  LIG1        0.0307
      7 C          -1.3790    0.1690    0.0000 C.ar    1  LIG1        0.0479
      8 N          -0.8941   -0.4984    0.0000 N.ar    1  LIG1       -0.2202
      9 C          -0.1094   -0.2435    0.0000 C.ar    1  LIG1        0.2149
     10 H           2.0697   -1.3130    0.0000 H       1  LIG1        0.0457
     11 H           0.5209   -1.8310   -0.9121 H       1  LIG1        0.0457
     12 H           0.5416   -1.8033    0.9370 H       1  LIG1        0.0457
     13 H           2.2616    0.1690    0.0000 H       1  LIG1        0.0825
     14 H           1.0156    1.8840    0.0000 H       1  LIG1        0.0828
     15 H          -1.2345    1.8840    0.0000 H       1  LIG1        0.0829
     16 H          -2.4805    0.1690    0.0000 H       1  LIG1        0.0846
@<TRIPOS>BOND
     1     1     2    1
     2     2     3   ar
     3     3     4   ar
     4     4     5   ar
     5     5     6   ar
     6     6     7   ar
     7     7     8   ar
     8     8     9   ar
     9     2     9   ar
    10     5     9   ar
    11     1    10    1
    12     1    11    1
    13     1    12    1
    14     3    13    1
    15     4    14    1
    16     6    15    1
    17     7    16    1
