@<TRIPOS>MOLECULE
Cn1ncc(=O)c2ccncc12
 19 20 0 0 0
SMALL
GASTEIGER
Energy = 0

@<TRIPOS>ATOM
      1 C           0.5754   -1.6713    0.0000 C.3     1  LIG1        0.0309
      2 N           0.5754   -0.8463    0.0000 N.ar    1  LIG1       -0.2651
      3 N           1.2898   -0.4338    0.0000 N.ar    1  LIG1       -0.1755
      4 C           1.2898    0.3912    0.0000 C.ar    1  LIG1        0.0952
      5 C           0.5754    0.8037    0.0000 C.ar    1  LIG1        0.2078
      6 O           0.5754    1.6287    0.0000 O.2     1  LIG1       -0.2855
      7 C          -0.1391    0.3912    0.0000 C.ar    1  LIG1        0.0511
      8 C          -0.8536    0.8037    0.0000 C.ar    1  LIG1       -0.0307
      9 C          -1.5681    0.3912    0.0000 C.ar    1  LIG1        0.0284
     10 N          -1.5681   -0.4338    0.0000 N.ar    1  LIG1       -0.2611
     11 C          -0.8536   -0.8463    0.0000 C.ar    1  LIG1        0.0532
     12 C          -0.1391   -0.4338    0.0000 C.ar    1  LIG1        0.0888
     13 H           1.6500   -2.0518    0.0000 H       1  LIG1        0.0473
     14 H           0.0169   -2.0660   -0.9121 H       1  LIG1        0.0473
     15 H           0.0452   -2.0460    0.9370 H       1  LIG1        0.0473
     16 H           2.2437    0.9419    0.0000 H       1  LIG1        0.0887
     17 H          -0.8536    1.9052    0.0000 H       1  LIG1        0.0640
     18 H          -2.5220    0.9420    0.0000 H       1  LIG1        0.0830
     19 H          -0.8536   -1.9478    0.0000 H       1  LIG1        0.0851
@<TRIPOS>BOND
     1     1     2    1
     2     2     3   ar
     3     3     4   ar
     4     4     5   ar
     5     5     6    2
     6     5     7   ar
     7     7     8   ar
     8     8     9   ar
     9     9    10   ar
    10    10    11   ar
    11    11    12   ar
    12     2    12   ar
    13     7    12   ar
    14     1    13    1
    15     1    14    1
    16     1    15    1
    17     4    16    1
    18     8    17    1
    19     9    18    1
    20    11    19    1
