@<TRIPOS>MOLECULE
O=c1[nH]ncc2cn[nH]c12
 14 15 0 0 0
SMALL
GASTEIGER
Energy = 0

@<TRIPOS>ATOM
      1 O          -0.4841   -1.4400    0.0000 O.2     1  LIG1       -0.2641
      2 C          -0.4841   -0.6150    0.0000 C.ar    1  LIG1        0.2902
      3 N          -1.1986   -0.2025    0.0000 N.ar    1  LIG1       -0.2415
      4 N          -1.1986    0.6225    0.0000 N.ar    1  LIG1       -0.1786
      5 C          -0.4841    1.0350    0.0000 C.ar    1  LIG1        0.0587
      6 C           0.2304    0.6225    0.0000 C.ar    1  LIG1        0.0445
      7 C           0.2304   -0.2025    0.0000 C.ar    1  LIG1        0.1328
      8 N           1.0150   -0.4575    0.0000 N.ar    1  LIG1       -0.2717
      9 N           1.4999    0.2100    0.0000 N.ar    1  LIG1       -0.1810
     10 C           1.0150    0.8774    0.0000 C.ar    1  LIG1        0.0586
     11 H          -2.1361   -0.7438    0.0000 H       1  LIG1        0.1922
     12 H          -0.4841    2.1365    0.0000 H       1  LIG1        0.0854
     13 H           1.3495   -1.4870    0.0000 H       1  LIG1        0.1891
     14 H           1.3554    1.9250    0.0000 H       1  LIG1        0.0854
@<TRIPOS>BOND
     1     1     2    2
     2     2     3   ar
     3     3     4   ar
     4     4     5   ar
     5     5     6   ar
     6     6     7   ar
     7     2     7   ar
     8     7     8   ar
     9     8     9   ar
    10     9    10   ar
    11     6    10   ar
    12     3    11    1
    13     5    12    1
    14     8    13    1
    15    10    14    1
