@<TRIPOS>MOLECULE
Cn1cnc2cncnc2c1=O
 18 19 0 0 0
SMALL
GASTEIGER
Energy = 0

@<TRIPOS>ATOM
      1 C           1.9053   -0.5924    0.0000 C.3     1  LIG1        0.0161
      2 N           1.1908   -0.1799    0.0000 N.ar    1  LIG1       -0.3006
      3 C           1.1908    0.6451    0.0000 C.ar    1  LIG1        0.0991
      4 N           0.4763    1.0576    0.0000 N.ar    1  LIG1       -0.2339
      5 C          -0.2381    0.6451    0.0000 C.ar    1  LIG1        0.1142
      6 C          -0.9526    1.0576    0.0000 C.ar    1  LIG1        0.0570
      7 N          -1.6671    0.6451    0.0000 N.ar    1  LIG1       -0.2416
      8 C          -1.6671   -0.1799    0.0000 C.ar    1  LIG1        0.1169
      9 N          -0.9526   -0.5924    0.0000 N.ar    1  LIG1       -0.2284
     10 C          -0.2381   -0.1799    0.0000 C.ar    1  LIG1        0.1566
     11 C           0.4763   -0.5924    0.0000 C.ar    1  LIG1        0.2798
     12 O           0.4763   -1.4174    0.0000 O.2     1  LIG1       -0.2653
     13 H           2.7721    0.1480    0.0000 H       1  LIG1        0.0457
     14 H           1.9679   -1.2734   -0.9121 H       1  LIG1        0.0457
     15 H           1.9647   -1.2390    0.9370 H       1  LIG1        0.0457
     16 H           2.1447    1.1959    0.0000 H       1  LIG1        0.1030
     17 H          -0.9526    2.1591    0.0000 H       1  LIG1        0.0852
     18 H          -2.6210   -0.7307    0.0000 H       1  LIG1        0.1047
@<TRIPOS>BOND
     1     1     2    1
     2     2     3   ar
     3     3     4   ar
     4     4     5   ar
     5     5     6   ar
     6     6     7   ar
     7     7     8   ar
     8     8     9   ar
     9     9    10   ar
    10     5    10   ar
    11    10    11   ar
    12     2    11   ar
    13    11    12    2
    14     1    13    1
    15     1    14    1
    16     1    15    1
    17     3    16    1
    18     6    17    1
    19     8    18    1
