@<TRIPOS>MOLECULE
O=c1ncc2[nH]cc[nH]c12
 15 16 0 0 0
SMALL
GASTEIGER
Energy = 0

@<TRIPOS>ATOM
      1 O           1.0478   -1.2735    0.0000 O.2     1  LIG1       -0.2636
      2 C           0.7929   -0.4888    0.0000 C.ar    1  LIG1        0.2957
      3 N           1.2778    0.1786    0.0000 N.ar    1  LIG1       -0.2136
      4 C           0.7929    0.8460    0.0000 C.ar    1  LIG1        0.0571
      5 C           0.0083    0.5911    0.0000 C.ar    1  LIG1        0.0867
      6 C           0.0083   -0.2339    0.0000 C.ar    1  LIG1        0.1314
      7 N          -0.7062   -0.6464    0.0000 N.ar    1  LIG1       -0.3540
      8 C          -1.4207   -0.2339    0.0000 C.ar    1  LIG1        0.0183
      9 C          -1.4207    0.5911    0.0000 C.ar    1  LIG1        0.0182
     10 N          -0.7062    1.0036    0.0000 N.ar    1  LIG1       -0.3569
     11 H           1.1333    1.8936    0.0000 H       1  LIG1        0.0852
     12 H          -0.7062   -1.7289    0.0000 H       1  LIG1        0.1656
     13 H          -2.3746   -0.7847    0.0000 H       1  LIG1        0.0822
     14 H          -2.3746    1.1419    0.0000 H       1  LIG1        0.0822
     15 H          -0.7062    2.0861    0.0000 H       1  LIG1        0.1655
@<TRIPOS>BOND
     1     1     2    2
     2     2     3   ar
     3     3     4   ar
     4     4     5   ar
     5     5     6   ar
     6     2     6   ar
     7     6     7   ar
     8     7     8   ar
     9     8     9   ar
    10     9    10   ar
    11     5    10   ar
    12     4    11    1
    13     7    12    1
    14     8    13    1
    15     9    14    1
    16    10    15    1
