@<TRIPOS>MOLECULE
c1ccc2ccccc2c1
 18 19 0 0 0
SMALL
GASTEIGER
Energy = 0

@<TRIPOS>ATOM
      1 C           1.4289   -0.4125    0.0000 C.ar    1  LIG1       -0.0612
      2 C           1.4289    0.4125    0.0000 C.ar    1  LIG1       -0.0612
      3 C           0.7145    0.8250    0.0000 C.ar    1  LIG1       -0.0540
      4 C           0.0000    0.4125    0.0000 C.ar    1  LIG1       -0.0179
      5 C          -0.7145    0.8250    0.0000 C.ar    1  LIG1       -0.0540
      6 C          -1.4289    0.4125    0.0000 C.ar    1  LIG1       -0.0612
      7 C          -1.4289   -0.4125    0.0000 C.ar    1  LIG1       -0.0612
      8 C          -0.7145   -0.8250    0.0000 C.ar    1  LIG1       -0.0540
      9 C           0.0000   -0.4125    0.0000 C.ar    1  LIG1       -0.0179
     10 C           0.7145   -0.8250    0.0000 C.ar    1  LIG1       -0.0540
     11 H           2.3828   -0.9632    0.0000 H       1  LIG1        0.0618
     12 H           2.3828    0.9632    0.0000 H       1  LIG1        0.0618
     13 H           0.7145    1.9265    0.0000 H       1  LIG1        0.0624
     14 H          -0.7145    1.9265    0.0000 H       1  LIG1        0.0624
     15 H          -2.3828    0.9632    0.0000 H       1  LIG1        0.0618
     16 H          -2.3828   -0.9632    0.0000 H       1  LIG1        0.0618
     17 H          -0.7145   -1.9265    0.0000 H       1  LIG1        0.0624
     18 H           0.7145   -1.9265    0.0000 H       1  LIG1        0.0624
@<TRIPOS>BOND
     1     1     2   ar
     2     2     3   ar
     3     3     4   ar
     4     4     5   ar
     5     5     6   ar
     6     6     7   ar
     7     7     8   ar
     8     8     9   ar
     9     4     9   ar
    10     9    10   ar
    11     1    10   ar
    12     1    11    1
    13     2    12    1
    14     3    13    1
    15     5    14    1
    16     6    15    1
    17     7    16    1
    18     8    17    1
    19    10    18    1
