@<TRIPOS>MOLECULE
O=c1occ2ccccn12
 15 16 0 0 0
SMALL
GASTEIGER
Energy = 0

@<TRIPOS>ATOM
      1 O           1.0065   -1.2671    0.0000 O.2     1  LIG1       -0.2223
      2 C           0.7515   -0.4825    0.0000 C.ar    1  LIG1        0.4248
      3 O           1.2365    0.1849    0.0000 O.2     1  LIG1       -0.4150
      4 C           0.7515    0.8524    0.0000 C.ar    1  LIG1        0.1214
      5 C          -0.0331    0.5974    0.0000 C.ar    1  LIG1        0.0873
      6 C          -0.7476    1.0099    0.0000 C.ar    1  LIG1       -0.0346
      7 C          -1.4620    0.5974    0.0000 C.ar    1  LIG1       -0.0583
      8 C          -1.4620   -0.2276    0.0000 C.ar    1  LIG1       -0.0449
      9 C          -0.7476   -0.6401    0.0000 C.ar    1  LIG1        0.0162
     10 N          -0.0331   -0.2276    0.0000 N.ar    1  LIG1       -0.2502
     11 H           1.0918    1.9000    0.0000 H       1  LIG1        0.1053
     12 H          -0.7476    2.1114    0.0000 H       1  LIG1        0.0639
     13 H          -2.4159    1.1481    0.0000 H       1  LIG1        0.0619
     14 H          -2.4159   -0.7783    0.0000 H       1  LIG1        0.0632
     15 H          -0.7476   -1.7416    0.0000 H       1  LIG1        0.0815
@<TRIPOS>BOND
     1     1     2    2
     2     2     3   ar
     3     3     4   ar
     4     4     5   ar
     5     5     6   ar
     6     6     7   ar
     7     7     8   ar
     8     8     9   ar
     9     9    10   ar
    10     2    10   ar
    11     5    10   ar
    12     4    11    1
    13     6    12    1
    14     7    13    1
    15     8    14    1
    16     9    15    1
