@<TRIPOS>MOLECULE
Cn1cnc(=O)c2c[nH]nc12
 17 18 0 0 0
SMALL
GASTEIGER
Energy = 0

@<TRIPOS>ATOM
      1 C           0.4536   -1.6807    0.0000 C.3     1  LIG1        0.0146
      2 N           0.4536   -0.8557    0.0000 N.ar    1  LIG1       -0.3178
      3 C           1.1681   -0.4432    0.0000 C.ar    1  LIG1        0.1012
      4 N           1.1681    0.3818    0.0000 N.ar    1  LIG1       -0.1987
      5 C           0.4536    0.7943    0.0000 C.ar    1  LIG1        0.2837
      6 O           0.4536    1.6193    0.0000 O.2     1  LIG1       -0.2650
      7 C          -0.2608    0.3818    0.0000 C.ar    1  LIG1        0.1027
      8 C          -1.0454    0.6367    0.0000 C.ar    1  LIG1        0.0369
      9 N          -1.5304   -0.0307    0.0000 N.ar    1  LIG1       -0.2820
     10 N          -1.0454   -0.6982    0.0000 N.ar    1  LIG1       -0.1553
     11 C          -0.2608   -0.4432    0.0000 C.ar    1  LIG1        0.1682
     12 H           1.5282   -2.0612    0.0000 H       1  LIG1        0.0457
     13 H          -0.1049   -2.0754   -0.9121 H       1  LIG1        0.0457
     14 H          -0.0766   -2.0554    0.9370 H       1  LIG1        0.0457
     15 H           2.1220   -0.9940    0.0000 H       1  LIG1        0.1030
     16 H          -1.3857    1.6843    0.0000 H       1  LIG1        0.0832
     17 H          -2.6129   -0.0307    0.0000 H       1  LIG1        0.1883
@<TRIPOS>BOND
     1     1     2    1
     2     2     3   ar
     3     3     4   ar
     4     4     5   ar
     5     5     6    2
     6     5     7   ar
     7     7     8   ar
     8     8     9   ar
     9     9    10   ar
    10    10    11   ar
    11     2    11   ar
    12     7    11   ar
    13     1    12    1
    14     1    13    1
    15     1    14    1
    16     3    15    1
    17     8    16    1
    18     9    17    1
