@<TRIPOS>MOLECULE
Cn1cnc(=O)c2nocc12
 16 17 0 0 0
SMALL
GASTEIGER
Energy = 0

@<TRIPOS>ATOM
      1 C           0.4745   -1.6985    0.0000 C.3     1  LIG1        0.0134
      2 N           0.4745   -0.8735    0.0000 N.ar    1  LIG1       -0.3304
      3 C           1.1890   -0.4610    0.0000 C.ar    1  LIG1        0.1002
      4 N           1.1890    0.3640    0.0000 N.ar    1  LIG1       -0.1974
      5 C           0.4745    0.7765    0.0000 C.ar    1  LIG1        0.3024
      6 O           0.4745    1.6015    0.0000 O.2     1  LIG1       -0.2633
      7 C          -0.2400    0.3640    0.0000 C.ar    1  LIG1        0.1955
      8 N          -1.0246    0.6189    0.0000 N.ar    1  LIG1       -0.0712
      9 O          -1.5095   -0.0485    0.0000 O.2     1  LIG1       -0.3601
     10 C          -1.0246   -0.7160    0.0000 C.ar    1  LIG1        0.1485
     11 C          -0.2400   -0.4610    0.0000 C.ar    1  LIG1        0.1149
     12 H           1.5491   -2.0790    0.0000 H       1  LIG1        0.0456
     13 H          -0.0840   -2.0932   -0.9121 H       1  LIG1        0.0456
     14 H          -0.0557   -2.0732    0.9370 H       1  LIG1        0.0456
     15 H           2.1429   -1.0118    0.0000 H       1  LIG1        0.1030
     16 H          -1.3650   -1.7636    0.0000 H       1  LIG1        0.1079
@<TRIPOS>BOND
     1     1     2    1
     2     2     3   ar
     3     3     4   ar
     4     4     5   ar
     5     5     6    2
     6     5     7   ar
     7     7     8   ar
     8     8     9   ar
     9     9    10   ar
    10    10    11   ar
    11     2    11   ar
    12     7    11   ar
    13     1    12    1
    14     1    13    1
    15     1    14    1
    16     3    15    1
    17    10    16    1
