@<TRIPOS>MOLECULE
c1[nH]cc2nnccc12
 14 15 0 0 0
SMALL
GASTEIGER
Energy = 0

@<TRIPOS>ATOM
      1 N           1.4373    0.0217    0.0000 N.ar    1  LIG1       -0.3646
      2 C           0.9524    0.6891    0.0000 C.ar    1  LIG1        0.0110
      3 C           0.1677    0.4342    0.0000 C.ar    1  LIG1        0.0209
      4 C          -0.5467    0.8467    0.0000 C.ar    1  LIG1       -0.0312
      5 C          -1.2612    0.4342    0.0000 C.ar    1  LIG1        0.0506
      6 N          -1.2612   -0.3908    0.0000 N.ar    1  LIG1       -0.1571
      7 N          -0.5467   -0.8033    0.0000 N.ar    1  LIG1       -0.1478
      8 C           0.1677   -0.3908    0.0000 C.ar    1  LIG1        0.1105
      9 C           0.9524   -0.6458    0.0000 C.ar    1  LIG1        0.0297
     10 H           2.5198    0.0217    0.0000 H       1  LIG1        0.1648
     11 H           1.2928    1.7367    0.0000 H       1  LIG1        0.0813
     12 H          -0.5467    1.9482    0.0000 H       1  LIG1        0.0640
     13 H          -2.2151    0.9850    0.0000 H       1  LIG1        0.0848
     14 H           1.2928   -1.6934    0.0000 H       1  LIG1        0.0829
@<TRIPOS>BOND
     1     1     2   ar
     2     2     3   ar
     3     3     4   ar
     4     4     5   ar
     5     5     6   ar
     6     6     7   ar
     7     7     8   ar
     8     3     8   ar
     9     8     9   ar
    10     1     9   ar
    11     1    10    1
    12     2    11    1
    13     4    12    1
    14     5    13    1
    15     9    14    1
