@<TRIPOS>MOLECULE
O=c1[nH]c2cc[nH]c(=O)c2[nH]1
 16 17 0 0 0
SMALL
GASTEIGER
Energy = 0

@<TRIPOS>ATOM
      1 O           2.0605    0.1863    0.0000 O.2     1  LIG1       -0.2468
      2 C           1.2355    0.1863    0.0000 C.ar    1  LIG1        0.3251
      3 N           0.7506    0.8538    0.0000 N.ar    1  LIG1       -0.3059
      4 C          -0.0340    0.5988    0.0000 C.ar    1  LIG1        0.0735
      5 C          -0.0340   -0.2262    0.0000 C.ar    1  LIG1        0.1319
      6 N           0.7506   -0.4811    0.0000 N.ar    1  LIG1       -0.3018
      7 C          -0.7485   -0.6387    0.0000 C.ar    1  LIG1        0.2743
      8 O          -0.7485   -1.4637    0.0000 O.2     1  LIG1       -0.2656
      9 N          -1.4630   -0.2262    0.0000 N.ar    1  LIG1       -0.3273
     10 C          -1.4630    0.5988    0.0000 C.ar    1  LIG1        0.0070
     11 C          -0.7485    1.0113    0.0000 C.ar    1  LIG1       -0.0200
     12 H           1.0851    1.8833    0.0000 H       1  LIG1        0.1704
     13 H           1.0851   -1.5106    0.0000 H       1  LIG1        0.1706
     14 H          -2.4005   -0.7675    0.0000 H       1  LIG1        0.1684
     15 H          -2.4169    1.1496    0.0000 H       1  LIG1        0.0808
     16 H          -0.7485    2.1128    0.0000 H       1  LIG1        0.0653
@<TRIPOS>BOND
     1     1     2    2
     2     2     3   ar
     3     3     4   ar
     4     4     5   ar
     5     5     6   ar
     6     2     6   ar
     7     5     7   ar
     8     7     8    2
     9     7     9   ar
    10     9    10   ar
    11    10    11   ar
    12     4    11   ar
    13     3    12    1
    14     6    13    1
    15     9    14    1
    16    10    15    1
    17    11    16    1
