@<TRIPOS>MOLECULE
O=c1nccc2cc[nH]n12
 15 16 0 0 0
SMALL
GASTEIGER
Energy = 0

@<TRIPOS>ATOM
      1 O           0.4830   -1.4242    0.0000 O.2     1  LIG1       -0.2426
      2 C           0.4830   -0.5992    0.0000 C.ar    1  LIG1        0.3675
      3 N           1.1975   -0.1867    0.0000 N.ar    1  LIG1       -0.1999
      4 C           1.1975    0.6383    0.0000 C.ar    1  LIG1        0.0351
      5 C           0.4830    1.0508    0.0000 C.ar    1  LIG1       -0.0178
      6 C          -0.2315    0.6383    0.0000 C.ar    1  LIG1        0.0714
      7 C          -1.0161    0.8933    0.0000 C.ar    1  LIG1       -0.0187
      8 C          -1.5010    0.2258    0.0000 C.ar    1  LIG1        0.0215
      9 N          -1.0161   -0.4416    0.0000 N.ar    1  LIG1       -0.2962
     10 N          -0.2315   -0.1867    0.0000 N.ar    1  LIG1       -0.2033
     11 H           2.1514    1.1891    0.0000 H       1  LIG1        0.0832
     12 H           0.4830    2.1523    0.0000 H       1  LIG1        0.0654
     13 H          -1.3565    1.9409    0.0000 H       1  LIG1        0.0654
     14 H          -2.6025    0.2258    0.0000 H       1  LIG1        0.0823
     15 H          -1.3506   -1.4711    0.0000 H       1  LIG1        0.1868
@<TRIPOS>BOND
     1     1     2    2
     2     2     3   ar
     3     3     4   ar
     4     4     5   ar
     5     5     6   ar
     6     6     7   ar
     7     7     8   ar
     8     8     9   ar
     9     9    10   ar
    10     2    10   ar
    11     6    10   ar
    12     4    11    1
    13     5    12    1
    14     7    13    1
    15     8    14    1
    16     9    15    1
