@<TRIPOS>MOLECULE
c1ncn2ncnnc12
 12 13 0 0 0
SMALL
GASTEIGER
Energy = 0

@<TRIPOS>ATOM
      1 C           1.2548    0.4125    0.0000 C.ar    1  LIG1        0.1590
      2 N           0.5403    0.8250    0.0000 N.ar    1  LIG1       -0.1503
      3 N          -0.1741    0.4125    0.0000 N.ar    1  LIG1       -0.1990
      4 C          -0.9588    0.6674    0.0000 C.ar    1  LIG1        0.1200
      5 N          -1.4437   -0.0000    0.0000 N.ar    1  LIG1       -0.2399
      6 C          -0.9588   -0.6674    0.0000 C.ar    1  LIG1        0.0752
      7 C          -0.1741   -0.4125    0.0000 C.ar    1  LIG1        0.1955
      8 N           0.5403   -0.8250    0.0000 N.ar    1  LIG1       -0.1266
      9 N           1.2548   -0.4125    0.0000 N.ar    1  LIG1       -0.1339
     10 H           2.2087    0.9633    0.0000 H       1  LIG1        0.1084
     11 H          -1.2992    1.7150    0.0000 H       1  LIG1        0.1048
     12 H          -1.2992   -1.7150    0.0000 H       1  LIG1        0.0869
@<TRIPOS>BOND
     1     1     2   ar
     2     2     3   ar
     3     3     4   ar
     4     4     5   ar
     5     5     6   ar
     6     6     7   ar
     7     3     7   ar
     8     7     8   ar
     9     8     9   ar
    10     1     9   ar
    11     1    10    1
    12     4    11    1
    13     6    12    1
