@<TRIPOS>MOLECULE
O=c1[nH]cno1
 8 8 0 0 0
SMALL
GASTEIGER
Energy = 0

@<TRIPOS>ATOM
      1 O          -1.2341   -0.0256    0.0000 O.2     1  LIG1       -0.2209
      2 C          -0.4091   -0.0256    0.0000 C.ar    1  LIG1        0.4396
      3 N           0.0758   -0.6931    0.0000 N.ar    1  LIG1       -0.2778
      4 C           0.8604   -0.4381    0.0000 C.ar    1  LIG1        0.1385
      5 N           0.8604    0.3869    0.0000 N.ar    1  LIG1       -0.0629
      6 O           0.0758    0.6418    0.0000 O.2     1  LIG1       -0.2958
      7 H          -0.2587   -1.7226    0.0000 H       1  LIG1        0.1730
      8 H           1.7516   -1.0855    0.0000 H       1  LIG1        0.1063
@<TRIPOS>BOND
     1     1     2    2
     2     2     3   ar
     3     3     4   ar
     4     4     5   ar
     5     5     6   ar
     6     2     6   ar
     7     3     7    1
     8     4     8    1
