@<TRIPOS>MOLECULE
O=c1nc2ccccc2n[nH]1
 16 17 0 0 0
SMALL
GASTEIGER
Energy = 0

@<TRIPOS>ATOM
      1 O           1.8619   -0.7379    0.0000 O.2     1  LIG1       -0.2432
      2 C           1.1475   -0.3254    0.0000 C.ar    1  LIG1        0.3626
      3 N           1.1475    0.4996    0.0000 N.ar    1  LIG1       -0.2262
      4 N           0.4330    0.9121    0.0000 N.ar    1  LIG1       -0.1682
      5 C          -0.2815    0.4996    0.0000 C.ar    1  LIG1        0.1095
      6 C          -0.9960    0.9121    0.0000 C.ar    1  LIG1       -0.0325
      7 C          -1.7104    0.4996    0.0000 C.ar    1  LIG1       -0.0596
      8 C          -1.7104   -0.3254    0.0000 C.ar    1  LIG1       -0.0596
      9 C          -0.9960   -0.7379    0.0000 C.ar    1  LIG1       -0.0340
     10 C          -0.2815   -0.3254    0.0000 C.ar    1  LIG1        0.0963
     11 N           0.4330   -0.7379    0.0000 N.ar    1  LIG1       -0.1904
     12 H           2.0850    1.0409    0.0000 H       1  LIG1        0.1937
     13 H          -0.9960    2.0136    0.0000 H       1  LIG1        0.0640
     14 H          -2.6643    1.0503    0.0000 H       1  LIG1        0.0618
     15 H          -2.6643   -0.8761    0.0000 H       1  LIG1        0.0618
     16 H          -0.9960   -1.8394    0.0000 H       1  LIG1        0.0639
@<TRIPOS>BOND
     1     1     2    2
     2     2     3   ar
     3     3     4   ar
     4     4     5   ar
     5     5     6   ar
     6     6     7   ar
     7     7     8   ar
     8     8     9   ar
     9     9    10   ar
    10     5    10   ar
    11    10    11   ar
    12     2    11   ar
    13     3    12    1
    14     6    13    1
    15     7    14    1
    16     8    15    1
    17     9    16    1
