@<TRIPOS>MOLECULE
Cn1cnn2ccnc2c1=O
 17 18 0 0 0
SMALL
GASTEIGER
Energy = 0

@<TRIPOS>ATOM
      1 C           1.7459   -0.5752    0.0000 C.3     1  LIG1        0.0162
      2 N           1.0314   -0.1627    0.0000 N.ar    1  LIG1       -0.2980
      3 C           1.0314    0.6623    0.0000 C.ar    1  LIG1        0.1195
      4 N           0.3169    1.0748    0.0000 N.ar    1  LIG1       -0.1551
      5 N          -0.3975    0.6623    0.0000 N.ar    1  LIG1       -0.2144
      6 C          -1.1821    0.9172    0.0000 C.ar    1  LIG1        0.0497
      7 C          -1.6671    0.2498    0.0000 C.ar    1  LIG1        0.0483
      8 N          -1.1821   -0.4176    0.0000 N.ar    1  LIG1       -0.2301
      9 C          -0.3975   -0.1627    0.0000 C.ar    1  LIG1        0.2198
     10 C           0.3169   -0.5752    0.0000 C.ar    1  LIG1        0.2966
     11 O           0.3169   -1.4002    0.0000 O.2     1  LIG1       -0.2636
     12 H           2.6127    0.1652    0.0000 H       1  LIG1        0.0457
     13 H           1.8085   -1.2562   -0.9121 H       1  LIG1        0.0457
     14 H           1.8053   -1.2218    0.9370 H       1  LIG1        0.0457
     15 H           1.9853    1.2131    0.0000 H       1  LIG1        0.1048
     16 H          -1.5224    1.9648    0.0000 H       1  LIG1        0.0846
     17 H          -2.7686    0.2498    0.0000 H       1  LIG1        0.0846
@<TRIPOS>BOND
     1     1     2    1
     2     2     3   ar
     3     3     4   ar
     4     4     5   ar
     5     5     6   ar
     6     6     7   ar
     7     7     8   ar
     8     8     9   ar
     9     5     9   ar
    10     9    10   ar
    11     2    10   ar
    12    10    11    2
    13     1    12    1
    14     1    13    1
    15     1    14    1
    16     3    15    1
    17     6    16    1
    18     7    17    1
