@<TRIPOS>MOLECULE
Cn1c(=O)ccn2cccc12
 19 20 0 0 0
SMALL
GASTEIGER
Energy = 0

@<TRIPOS>ATOM
      1 C           0.2741   -1.4085    0.0000 C.3     1  LIG1        0.0166
      2 N           0.2741   -0.5835    0.0000 N.ar    1  LIG1       -0.2974
      3 C           0.9886   -0.1710    0.0000 C.ar    1  LIG1        0.2539
      4 O           1.7031   -0.5835    0.0000 O.2     1  LIG1       -0.2676
      5 C           0.9886    0.6540    0.0000 C.ar    1  LIG1        0.0195
      6 C           0.2741    1.0665    0.0000 C.ar    1  LIG1        0.0162
      7 N          -0.4404    0.6540    0.0000 N.ar    1  LIG1       -0.3091
      8 C          -1.2250    0.9090    0.0000 C.ar    1  LIG1        0.0112
      9 C          -1.7099    0.2415    0.0000 C.ar    1  LIG1       -0.0418
     10 C          -1.2250   -0.4259    0.0000 C.ar    1  LIG1       -0.0191
     11 C          -0.4404   -0.1710    0.0000 C.ar    1  LIG1        0.1203
     12 H           1.3487   -1.7890    0.0000 H       1  LIG1        0.0457
     13 H          -0.2844   -1.8032   -0.9121 H       1  LIG1        0.0457
     14 H          -0.2561   -1.7832    0.9370 H       1  LIG1        0.0457
     15 H           1.9425    1.2048    0.0000 H       1  LIG1        0.0686
     16 H           0.2741    2.1680    0.0000 H       1  LIG1        0.0815
     17 H          -1.5654    1.9566    0.0000 H       1  LIG1        0.0813
     18 H          -2.8114    0.2415    0.0000 H       1  LIG1        0.0633
     19 H          -1.5654   -1.4735    0.0000 H       1  LIG1        0.0654
@<TRIPOS>BOND
     1     1     2    1
     2     2     3   ar
     3     3     4    2
     4     3     5   ar
     5     5     6   ar
     6     6     7   ar
     7     7     8   ar
     8     8     9   ar
     9     9    10   ar
    10    10    11   ar
    11     2    11   ar
    12     7    11   ar
    13     1    12    1
    14     1    13    1
    15     1    14    1
    16     5    15    1
    17     6    16    1
    18     8    17    1
    19     9    18    1
    20    10    19    1
