@<TRIPOS>MOLECULE
O=c1[nH]c2ncccc2o1
 14 15 0 0 0
SMALL
GASTEIGER
Energy = 0

@<TRIPOS>ATOM
      1 O           1.9477   -0.0024    0.0000 O.2     1  LIG1       -0.2228
      2 C           1.1227   -0.0024    0.0000 C.ar    1  LIG1        0.4198
      3 N           0.6378    0.6650    0.0000 N.ar    1  LIG1       -0.2728
      4 C          -0.1468    0.4101    0.0000 C.ar    1  LIG1        0.1791
      5 N          -0.8613    0.8226    0.0000 N.ar    1  LIG1       -0.2345
      6 C          -1.5757    0.4101    0.0000 C.ar    1  LIG1        0.0301
      7 C          -1.5757   -0.4149    0.0000 C.ar    1  LIG1       -0.0400
      8 C          -0.8613   -0.8274    0.0000 C.ar    1  LIG1       -0.0141
      9 C          -0.1468   -0.4149    0.0000 C.ar    1  LIG1        0.1757
     10 O           0.6378   -0.6698    0.0000 O.2     1  LIG1       -0.4059
     11 H           0.9723    1.6945    0.0000 H       1  LIG1        0.1736
     12 H          -2.5296    0.9608    0.0000 H       1  LIG1        0.0830
     13 H          -2.5296   -0.9656    0.0000 H       1  LIG1        0.0634
     14 H          -0.8613   -1.9289    0.0000 H       1  LIG1        0.0656
@<TRIPOS>BOND
     1     1     2    2
     2     2     3   ar
     3     3     4   ar
     4     4     5   ar
     5     5     6   ar
     6     6     7   ar
     7     7     8   ar
     8     8     9   ar
     9     4     9   ar
    10     9    10   ar
    11     2    10   ar
    12     3    11    1
    13     6    12    1
    14     7    13    1
    15     8    14    1
