@<TRIPOS>MOLECULE
c1ncc2c[nH]ncc12
 14 15 0 0 0
SMALL
GASTEIGER
Energy = 0

@<TRIPOS>ATOM
      1 N           1.2487    0.4125    0.0000 N.ar    1  LIG1       -0.2841
      2 C           0.5342    0.8250    0.0000 C.ar    1  LIG1        0.0301
      3 C          -0.1802    0.4125    0.0000 C.ar    1  LIG1        0.0206
      4 C          -0.9649    0.6674    0.0000 C.ar    1  LIG1        0.0368
      5 N          -1.4498   -0.0000    0.0000 N.ar    1  LIG1       -0.2620
      6 C          -0.9649   -0.6674    0.0000 C.ar    1  LIG1        0.0369
      7 C          -0.1802   -0.4125    0.0000 C.ar    1  LIG1        0.0228
      8 C           0.5342   -0.8250    0.0000 C.ar    1  LIG1        0.0570
      9 N           1.2487   -0.4125    0.0000 N.ar    1  LIG1       -0.1817
     10 H           2.1862    0.9538    0.0000 H       1  LIG1        0.1882
     11 H           0.5342    1.9265    0.0000 H       1  LIG1        0.0830
     12 H          -1.3053    1.7150    0.0000 H       1  LIG1        0.0836
     13 H          -1.3053   -1.7150    0.0000 H       1  LIG1        0.0836
     14 H           0.5342   -1.9265    0.0000 H       1  LIG1        0.0854
@<TRIPOS>BOND
     1     1     2   ar
     2     2     3   ar
     3     3     4   ar
     4     4     5   ar
     5     5     6   ar
     6     6     7   ar
     7     3     7   ar
     8     7     8   ar
     9     8     9   ar
    10     1     9   ar
    11     1    10    1
    12     2    11    1
    13     4    12    1
    14     6    13    1
    15     8    14    1
