@<TRIPOS>MOLECULE
Cn1c(=O)[nH]c2cccn2c1=O
 19 20 0 0 0
SMALL
GASTEIGER
Energy = 0

@<TRIPOS>ATOM
      1 C           1.5543   -0.6788    0.0000 C.3     1  LIG1        0.0210
      2 N           0.8398   -0.2663    0.0000 N.ar    1  LIG1       -0.2489
      3 C           0.8398    0.5587    0.0000 C.ar    1  LIG1        0.3317
      4 O           1.5543    0.9712    0.0000 O.2     1  LIG1       -0.2464
      5 N           0.1253    0.9712    0.0000 N.ar    1  LIG1       -0.2933
      6 C          -0.5891    0.5587    0.0000 C.ar    1  LIG1        0.1230
      7 C          -1.3738    0.8136    0.0000 C.ar    1  LIG1       -0.0191
      8 C          -1.8587    0.1462    0.0000 C.ar    1  LIG1       -0.0416
      9 C          -1.3738   -0.5213    0.0000 C.ar    1  LIG1        0.0161
     10 N          -0.5891   -0.2663    0.0000 N.ar    1  LIG1       -0.2546
     11 C           0.1253   -0.6788    0.0000 C.ar    1  LIG1        0.3384
     12 O           0.1253   -1.5038    0.0000 O.2     1  LIG1       -0.2458
     13 H           2.4211    0.0616    0.0000 H       1  LIG1        0.0459
     14 H           1.6169   -1.3598   -0.9121 H       1  LIG1        0.0459
     15 H           1.6137   -1.3254    0.9370 H       1  LIG1        0.0459
     16 H           0.1253    2.0537    0.0000 H       1  LIG1        0.1718
     17 H          -1.7142    1.8612    0.0000 H       1  LIG1        0.0654
     18 H          -2.9602    0.1462    0.0000 H       1  LIG1        0.0633
     19 H          -1.7142   -1.5689    0.0000 H       1  LIG1        0.0815
@<TRIPOS>BOND
     1     1     2    1
     2     2     3   ar
     3     3     4    2
     4     3     5   ar
     5     5     6   ar
     6     6     7   ar
     7     7     8   ar
     8     8     9   ar
     9     9    10   ar
    10     6    10   ar
    11    10    11   ar
    12     2    11   ar
    13    11    12    2
    14     1    13    1
    15     1    14    1
    16     1    15    1
    17     5    16    1
    18     7    17    1
    19     8    18    1
    20     9    19    1
