@<TRIPOS>MOLECULE
c1cc2cnncc2[nH]1
 14 15 0 0 0
SMALL
GASTEIGER
Energy = 0

@<TRIPOS>ATOM
      1 N           0.9733   -0.6558    0.0000 N.ar    1  LIG1       -0.3594
      2 C           1.4583    0.0117    0.0000 C.ar    1  LIG1        0.0028
      3 C           0.9733    0.6791    0.0000 C.ar    1  LIG1       -0.0351
      4 C           0.1887    0.4242    0.0000 C.ar    1  LIG1        0.0210
      5 C          -0.5257    0.8367    0.0000 C.ar    1  LIG1        0.0591
      6 N          -1.2402    0.4242    0.0000 N.ar    1  LIG1       -0.1570
      7 N          -1.2402   -0.4008    0.0000 N.ar    1  LIG1       -0.1556
      8 C          -0.5257   -0.8133    0.0000 C.ar    1  LIG1        0.0738
      9 C           0.1887   -0.4008    0.0000 C.ar    1  LIG1        0.0680
     10 H           1.3078   -1.6853    0.0000 H       1  LIG1        0.1654
     11 H           2.5598    0.0117    0.0000 H       1  LIG1        0.0807
     12 H           1.3136    1.7267    0.0000 H       1  LIG1        0.0639
     13 H          -0.5257    1.9382    0.0000 H       1  LIG1        0.0855
     14 H          -0.5257   -1.9148    0.0000 H       1  LIG1        0.0869
@<TRIPOS>BOND
     1     1     2   ar
     2     2     3   ar
     3     3     4   ar
     4     4     5   ar
     5     5     6   ar
     6     6     7   ar
     7     7     8   ar
     8     8     9   ar
     9     1     9   ar
    10     4     9   ar
    11     1    10    1
    12     2    11    1
    13     3    12    1
    14     5    13    1
    15     8    14    1
