@<TRIPOS>MOLECULE
Cn1ccc2[nH]ccc2c1=O
 19 20 0 0 0
SMALL
GASTEIGER
Energy = 0

@<TRIPOS>ATOM
      1 C          -1.7447   -0.5695    0.0000 C.3     1  LIG1        0.0147
      2 N          -1.0303   -0.1570    0.0000 N.ar    1  LIG1       -0.3177
      3 C          -1.0303    0.6680    0.0000 C.ar    1  LIG1        0.0096
      4 C          -0.3158    1.0805    0.0000 C.ar    1  LIG1       -0.0214
      5 C           0.3987    0.6680    0.0000 C.ar    1  LIG1        0.0531
      6 C           0.3987   -0.1570    0.0000 C.ar    1  LIG1        0.0641
      7 C           1.1833   -0.4119    0.0000 C.ar    1  LIG1       -0.0315
      8 C           1.6682    0.2555    0.0000 C.ar    1  LIG1        0.0029
      9 N           1.1833    0.9230    0.0000 N.ar    1  LIG1       -0.3605
     10 C          -0.3158   -0.5695    0.0000 C.ar    1  LIG1        0.2602
     11 O          -0.3158   -1.3945    0.0000 O.2     1  LIG1       -0.2670
     12 H          -2.6116    0.1708    0.0000 H       1  LIG1        0.0457
     13 H          -1.8072   -1.2505    0.9121 H       1  LIG1        0.0457
     14 H          -1.8041   -1.2161   -0.9370 H       1  LIG1        0.0457
     15 H          -1.9842    1.2188    0.0000 H       1  LIG1        0.0810
     16 H          -0.3158    2.1820    0.0000 H       1  LIG1        0.0653
     17 H           1.5237   -1.4595    0.0000 H       1  LIG1        0.0640
     18 H           2.7697    0.2555    0.0000 H       1  LIG1        0.0807
     19 H           1.5178    1.9525    0.0000 H       1  LIG1        0.1653
@<TRIPOS>BOND
     1     1     2    1
     2     2     3   ar
     3     3     4   ar
     4     4     5   ar
     5     5     6   ar
     6     6     7   ar
     7     7     8   ar
     8     8     9   ar
     9     5     9   ar
    10     6    10   ar
    11     2    10   ar
    12    10    11    2
    13     1    12    1
    14     1    13    1
    15     1    14    1
    16     3    15    1
    17     4    16    1
    18     7    17    1
    19     8    18    1
    20     9    19    1
