@<TRIPOS>MOLECULE
c1nc2ccncc2s1
 13 14 0 0 0
SMALL
GASTEIGER
Energy = 0

@<TRIPOS>ATOM
      1 S           0.8069   -0.5700    0.0000 S.2     1  LIG1       -0.0739
      2 C           1.2918    0.0974    0.0000 C.ar    1  LIG1        0.0660
      3 N           0.8069    0.7649    0.0000 N.ar    1  LIG1       -0.2473
      4 C           0.0223    0.5099    0.0000 C.ar    1  LIG1        0.0810
      5 C          -0.6922    0.9224    0.0000 C.ar    1  LIG1       -0.0171
      6 C          -1.4067    0.5099    0.0000 C.ar    1  LIG1        0.0296
      7 N          -1.4067   -0.3151    0.0000 N.ar    1  LIG1       -0.2620
      8 C          -0.6922   -0.7276    0.0000 C.ar    1  LIG1        0.0434
      9 C           0.0223   -0.3151    0.0000 C.ar    1  LIG1        0.0570
     10 H           2.3933    0.0974    0.0000 H       1  LIG1        0.0907
     11 H          -0.6922    2.0239    0.0000 H       1  LIG1        0.0654
     12 H          -2.3606    1.0607    0.0000 H       1  LIG1        0.0830
     13 H          -0.6922   -1.8291    0.0000 H       1  LIG1        0.0841
@<TRIPOS>BOND
     1     1     2   ar
     2     2     3   ar
     3     3     4   ar
     4     4     5   ar
     5     5     6   ar
     6     6     7   ar
     7     7     8   ar
     8     8     9   ar
     9     1     9   ar
    10     4     9   ar
    11     2    10    1
    12     5    11    1
    13     6    12    1
    14     8    13    1
