@<TRIPOS>MOLECULE
Cn1ncc2ccccc12
 18 19 0 0 0
SMALL
GASTEIGER
Energy = 0

@<TRIPOS>ATOM
      1 C           1.0461   -1.3008    0.0000 C.3     1  LIG1        0.0309
      2 N           0.7911   -0.5162    0.0000 N.ar    1  LIG1       -0.2668
      3 N           1.2760    0.1513    0.0000 N.ar    1  LIG1       -0.1788
      4 C           0.7911    0.8187    0.0000 C.ar    1  LIG1        0.0571
      5 C           0.0065    0.5638    0.0000 C.ar    1  LIG1        0.0197
      6 C          -0.7080    0.9763    0.0000 C.ar    1  LIG1       -0.0511
      7 C          -1.4224    0.5638    0.0000 C.ar    1  LIG1       -0.0610
      8 C          -1.4224   -0.2612    0.0000 C.ar    1  LIG1       -0.0597
      9 C          -0.7080   -0.6737    0.0000 C.ar    1  LIG1       -0.0361
     10 C           0.0065   -0.2612    0.0000 C.ar    1  LIG1        0.0686
     11 H           2.1857   -1.3306    0.0000 H       1  LIG1        0.0473
     12 H           0.6370   -1.8488   -0.9121 H       1  LIG1        0.0473
     13 H           0.6576   -1.8211    0.9370 H       1  LIG1        0.0473
     14 H           1.1315    1.8663    0.0000 H       1  LIG1        0.0854
     15 H          -0.7080    2.0778    0.0000 H       1  LIG1        0.0625
     16 H          -2.3763    1.1145    0.0000 H       1  LIG1        0.0618
     17 H          -2.3763   -0.8119    0.0000 H       1  LIG1        0.0618
     18 H          -0.7080   -1.7752    0.0000 H       1  LIG1        0.0639
@<TRIPOS>BOND
     1     1     2    1
     2     2     3   ar
     3     3     4   ar
     4     4     5   ar
     5     5     6   ar
     6     6     7   ar
     7     7     8   ar
     8     8     9   ar
     9     9    10   ar
    10     2    10   ar
    11     5    10   ar
    12     1    11    1
    13     1    12    1
    14     1    13    1
    15     4    14    1
    16     6    15    1
    17     7    16    1
    18     8    17    1
    19     9    18    1
