@<TRIPOS>MOLECULE
O=c1[nH]cnc2c[nH]nc12
 14 15 0 0 0
SMALL
GASTEIGER
Energy = 0

@<TRIPOS>ATOM
      1 O           0.4949   -1.4463    0.0000 O.2     1  LIG1       -0.2654
      2 C           0.4949   -0.6213    0.0000 C.ar    1  LIG1        0.2792
      3 N           1.2094   -0.2088    0.0000 N.ar    1  LIG1       -0.3116
      4 C           1.2094    0.6162    0.0000 C.ar    1  LIG1        0.0968
      5 N           0.4949    1.0287    0.0000 N.ar    1  LIG1       -0.2341
      6 C          -0.2196    0.6162    0.0000 C.ar    1  LIG1        0.1152
      7 C          -1.0042    0.8712    0.0000 C.ar    1  LIG1        0.0485
      8 N          -1.4891    0.2037    0.0000 N.ar    1  LIG1       -0.2819
      9 N          -1.0042   -0.4637    0.0000 N.ar    1  LIG1       -0.1668
     10 C          -0.2196   -0.2088    0.0000 C.ar    1  LIG1        0.1746
     11 H           2.1469   -0.7501    0.0000 H       1  LIG1        0.1698
     12 H           2.1633    1.1670    0.0000 H       1  LIG1        0.1028
     13 H          -1.3446    1.9188    0.0000 H       1  LIG1        0.0845
     14 H          -2.5716    0.2037    0.0000 H       1  LIG1        0.1883
@<TRIPOS>BOND
     1     1     2    2
     2     2     3   ar
     3     3     4   ar
     4     4     5   ar
     5     5     6   ar
     6     6     7   ar
     7     7     8   ar
     8     8     9   ar
     9     9    10   ar
    10     2    10   ar
    11     6    10   ar
    12     3    11    1
    13     4    12    1
    14     7    13    1
    15     8    14    1
