@<TRIPOS>MOLECULE
Cn1c(=O)ncc2cc[nH]c12
 18 19 0 0 0
SMALL
GASTEIGER
Energy = 0

@<TRIPOS>ATOM
      1 C          -0.2713   -1.4025    0.0000 C.3     1  LIG1        0.0181
      2 N          -0.2713   -0.5775    0.0000 N.ar    1  LIG1       -0.2810
      3 C          -0.9857   -0.1650    0.0000 C.ar    1  LIG1        0.3497
      4 O          -1.7002   -0.5775    0.0000 O.2     1  LIG1       -0.2445
      5 N          -0.9857    0.6600    0.0000 N.ar    1  LIG1       -0.2006
      6 C          -0.2713    1.0725    0.0000 C.ar    1  LIG1        0.0436
      7 C           0.4432    0.6600    0.0000 C.ar    1  LIG1        0.0353
      8 C           0.4432   -0.1650    0.0000 C.ar    1  LIG1        0.1236
      9 N           1.2278   -0.4199    0.0000 N.ar    1  LIG1       -0.3470
     10 C           1.7128    0.2475    0.0000 C.ar    1  LIG1        0.0041
     11 C           1.2278    0.9150    0.0000 C.ar    1  LIG1       -0.0337
     12 H          -1.3459   -1.7830    0.0000 H       1  LIG1        0.0458
     13 H           0.2872   -1.7972    0.9121 H       1  LIG1        0.0458
     14 H           0.2589   -1.7772   -0.9370 H       1  LIG1        0.0458
     15 H          -0.2713    2.1740    0.0000 H       1  LIG1        0.0838
     16 H           1.5623   -1.4494    0.0000 H       1  LIG1        0.1667
     17 H           2.8143    0.2475    0.0000 H       1  LIG1        0.0807
     18 H           1.5681    1.9626    0.0000 H       1  LIG1        0.0639
@<TRIPOS>BOND
     1     1     2    1
     2     2     3   ar
     3     3     4    2
     4     3     5   ar
     5     5     6   ar
     6     6     7   ar
     7     7     8   ar
     8     2     8   ar
     9     8     9   ar
    10     9    10   ar
    11    10    11   ar
    12     7    11   ar
    13     1    12    1
    14     1    13    1
    15     1    14    1
    16     6    15    1
    17     9    16    1
    18    10    17    1
    19    11    18    1
