@<TRIPOS>MOLECULE
c1cnsc1
 8 8 0 0 0
SMALL
GASTEIGER
Energy = 0

@<TRIPOS>ATOM
      1 S          -0.1468   -0.5044    0.0000 S.2     1  LIG1        0.0031
      2 C           0.6378   -0.2495    0.0000 C.ar    1  LIG1       -0.0043
      3 C           0.6378    0.5755    0.0000 C.ar    1  LIG1       -0.0351
      4 C          -0.1468    0.8305    0.0000 C.ar    1  LIG1        0.0366
      5 N          -0.6318    0.1630    0.0000 N.ar    1  LIG1       -0.2187
      6 H           1.5289   -0.8970    0.0000 H       1  LIG1        0.0709
      7 H           1.5290    1.2229    0.0000 H       1  LIG1        0.0638
      8 H          -0.4871    1.8781    0.0000 H       1  LIG1        0.0836
@<TRIPOS>BOND
     1     1     2   ar
     2     2     3   ar
     3     3     4   ar
     4     4     5   ar
     5     1     5   ar
     6     2     6    1
     7     3     7    1
     8     4     8    1
