@<TRIPOS>MOLECULE
c1nc2oncc2[nH]1
 11 12 0 0 0
SMALL
GASTEIGER
Energy = 0

@<TRIPOS>ATOM
      1 N           0.8085   -0.6925    0.0000 N.ar    1  LIG1       -0.3405
      2 C           1.2934   -0.0251    0.0000 C.ar    1  LIG1        0.0978
      3 N           0.8085    0.6423    0.0000 N.ar    1  LIG1       -0.1993
      4 C           0.0239    0.3874    0.0000 C.ar    1  LIG1        0.2759
      5 C           0.0239   -0.4376    0.0000 C.ar    1  LIG1        0.1270
      6 C          -0.7608   -0.6925    0.0000 C.ar    1  LIG1        0.0957
      7 N          -1.2457   -0.0251    0.0000 N.ar    1  LIG1       -0.0820
      8 O          -0.7608    0.6423    0.0000 O.2     1  LIG1       -0.3329
      9 H           1.1430   -1.7220    0.0000 H       1  LIG1        0.1669
     10 H           2.3949   -0.0251    0.0000 H       1  LIG1        0.1028
     11 H          -1.1012   -1.7401    0.0000 H       1  LIG1        0.0886
@<TRIPOS>BOND
     1     1     2   ar
     2     2     3   ar
     3     3     4   ar
     4     4     5   ar
     5     1     5   ar
     6     5     6   ar
     7     6     7   ar
     8     7     8   ar
     9     4     8   ar
    10     1     9    1
    11     2    10    1
    12     6    11    1
