@<TRIPOS>MOLECULE
c1cnc2snnc2c1
 12 13 0 0 0
SMALL
GASTEIGER
Energy = 0

@<TRIPOS>ATOM
      1 S           0.7770   -0.5653    0.0000 S.2     1  LIG1        0.0566
      2 N           1.2620    0.1021    0.0000 N.ar    1  LIG1       -0.1079
      3 N           0.7770    0.7696    0.0000 N.ar    1  LIG1       -0.1395
      4 C          -0.0076    0.5146    0.0000 C.ar    1  LIG1        0.1203
      5 C          -0.7221    0.9271    0.0000 C.ar    1  LIG1       -0.0304
      6 C          -1.4365    0.5146    0.0000 C.ar    1  LIG1       -0.0415
      7 C          -1.4365   -0.3104    0.0000 C.ar    1  LIG1        0.0290
      8 N          -0.7221   -0.7229    0.0000 N.ar    1  LIG1       -0.2447
      9 C          -0.0076   -0.3104    0.0000 C.ar    1  LIG1        0.1477
     10 H          -0.7221    2.0286    0.0000 H       1  LIG1        0.0641
     11 H          -2.3904    1.0653    0.0000 H       1  LIG1        0.0633
     12 H          -2.3904   -0.8611    0.0000 H       1  LIG1        0.0830
@<TRIPOS>BOND
     1     1     2   ar
     2     2     3   ar
     3     3     4   ar
     4     4     5   ar
     5     5     6   ar
     6     6     7   ar
     7     7     8   ar
     8     8     9   ar
     9     1     9   ar
    10     4     9   ar
    11     5    10    1
    12     6    11    1
    13     7    12    1
