@<TRIPOS>MOLECULE
Cn1cnc2nc(=O)ccc2c1
 19 20 0 0 0
SMALL
GASTEIGER
Energy = 0

@<TRIPOS>ATOM
      1 C           2.1804   -0.8624    0.0000 C.3     1  LIG1        0.0127
      2 N           1.4659   -0.4499    0.0000 N.ar    1  LIG1       -0.3406
      3 C           1.4659    0.3751    0.0000 C.ar    1  LIG1        0.0980
      4 N           0.7514    0.7876    0.0000 N.ar    1  LIG1       -0.2177
      5 C           0.0370    0.3751    0.0000 C.ar    1  LIG1        0.1665
      6 N          -0.6775    0.7876    0.0000 N.ar    1  LIG1       -0.1893
      7 C          -1.3920    0.3751    0.0000 C.ar    1  LIG1        0.2721
      8 O          -2.1064    0.7876    0.0000 O.2     1  LIG1       -0.2658
      9 C          -1.3920   -0.4499    0.0000 C.ar    1  LIG1        0.0054
     10 C          -0.6775   -0.8624    0.0000 C.ar    1  LIG1       -0.0445
     11 C           0.0370   -0.4499    0.0000 C.ar    1  LIG1        0.0356
     12 C           0.7514   -0.8624    0.0000 C.ar    1  LIG1        0.0163
     13 H           3.0472   -0.1220    0.0000 H       1  LIG1        0.0456
     14 H           2.2430   -1.5434   -0.9121 H       1  LIG1        0.0456
     15 H           2.2398   -1.5090    0.9370 H       1  LIG1        0.0456
     16 H           2.4198    0.9259    0.0000 H       1  LIG1        0.1029
     17 H          -2.3459   -1.0007    0.0000 H       1  LIG1        0.0672
     18 H          -0.6775   -1.9639    0.0000 H       1  LIG1        0.0627
     19 H           0.7514   -1.9639    0.0000 H       1  LIG1        0.0816
@<TRIPOS>BOND
     1     1     2    1
     2     2     3   ar
     3     3     4   ar
     4     4     5   ar
     5     5     6   ar
     6     6     7   ar
     7     7     8    2
     8     7     9   ar
     9     9    10   ar
    10    10    11   ar
    11     5    11   ar
    12    11    12   ar
    13     2    12   ar
    14     1    13    1
    15     1    14    1
    16     1    15    1
    17     3    16    1
    18     9    17    1
    19    10    18    1
    20    12    19    1
