@<TRIPOS>MOLECULE
O=c1cc[nH]c2scnc12
 14 15 0 0 0
SMALL
GASTEIGER
Energy = 0

@<TRIPOS>ATOM
      1 O          -0.6271   -1.5643    0.0000 O.2     1  LIG1       -0.2855
      2 C          -0.6271   -0.7393    0.0000 C.ar    1  LIG1        0.2080
      3 C          -1.3415   -0.3268    0.0000 C.ar    1  LIG1        0.0032
      4 C          -1.3415    0.4982    0.0000 C.ar    1  LIG1        0.0063
      5 N          -0.6271    0.9107    0.0000 N.ar    1  LIG1       -0.3539
      6 C           0.0874    0.4982    0.0000 C.ar    1  LIG1        0.1084
      7 C           0.0874   -0.3268    0.0000 C.ar    1  LIG1        0.1410
      8 N           0.8720   -0.5817    0.0000 N.ar    1  LIG1       -0.2420
      9 C           1.3569    0.0857    0.0000 C.ar    1  LIG1        0.0675
     10 S           0.8720    0.7532    0.0000 S.2     1  LIG1       -0.0577
     11 H          -2.2954   -0.8775    0.0000 H       1  LIG1        0.0671
     12 H          -2.2954    1.0489    0.0000 H       1  LIG1        0.0808
     13 H          -0.6271    1.9932    0.0000 H       1  LIG1        0.1659
     14 H           2.4584    0.0857    0.0000 H       1  LIG1        0.0908
@<TRIPOS>BOND
     1     1     2    2
     2     2     3   ar
     3     3     4   ar
     4     4     5   ar
     5     5     6   ar
     6     6     7   ar
     7     2     7   ar
     8     7     8   ar
     9     8     9   ar
    10     9    10   ar
    11     6    10   ar
    12     3    11    1
    13     4    12    1
    14     5    13    1
    15     9    14    1
