@<TRIPOS>MOLECULE
O=c1[nH]cc2cnccn12
 15 16 0 0 0
SMALL
GASTEIGER
Energy = 0

@<TRIPOS>ATOM
      1 O           1.0478   -1.2735    0.0000 O.2     1  LIG1       -0.2462
      2 C           0.7929   -0.4888    0.0000 C.ar    1  LIG1        0.3313
      3 N           1.2778    0.1786    0.0000 N.ar    1  LIG1       -0.3121
      4 C           0.7929    0.8460    0.0000 C.ar    1  LIG1        0.0318
      5 C           0.0083    0.5911    0.0000 C.ar    1  LIG1        0.0849
      6 C          -0.7062    1.0036    0.0000 C.ar    1  LIG1        0.0530
      7 N          -1.4207    0.5911    0.0000 N.ar    1  LIG1       -0.2597
      8 C          -1.4207   -0.2339    0.0000 C.ar    1  LIG1        0.0442
      9 C          -0.7062   -0.6464    0.0000 C.ar    1  LIG1        0.0328
     10 N           0.0083   -0.2339    0.0000 N.ar    1  LIG1       -0.2653
     11 H           2.3603    0.1786    0.0000 H       1  LIG1        0.1699
     12 H           1.1333    1.8936    0.0000 H       1  LIG1        0.0830
     13 H          -0.7062    2.1051    0.0000 H       1  LIG1        0.0851
     14 H          -2.3746   -0.7847    0.0000 H       1  LIG1        0.0844
     15 H          -0.7062   -1.7479    0.0000 H       1  LIG1        0.0830
@<TRIPOS>BOND
     1     1     2    2
     2     2     3   ar
     3     3     4   ar
     4     4     5   ar
     5     5     6   ar
     6     6     7   ar
     7     7     8   ar
     8     8     9   ar
     9     9    10   ar
    10     2    10   ar
    11     5    10   ar
    12     3    11    1
    13     4    12    1
    14     6    13    1
    15     8    14    1
    16     9    15    1
