@<TRIPOS>MOLECULE
O=c1cn[nH]c2nncn12
 13 14 0 0 0
SMALL
GASTEIGER
Energy = 0

@<TRIPOS>ATOM
      1 O           0.4982   -1.4753    0.0000 O.2     1  LIG1       -0.2655
      2 C           0.4982   -0.6503    0.0000 C.ar    1  LIG1        0.2790
      3 C           1.2126   -0.2378    0.0000 C.ar    1  LIG1        0.1127
      4 N           1.2126    0.5872    0.0000 N.ar    1  LIG1       -0.1740
      5 N           0.4982    0.9997    0.0000 N.ar    1  LIG1       -0.2444
      6 C          -0.2163    0.5872    0.0000 C.ar    1  LIG1        0.2525
      7 N          -1.0009    0.8421    0.0000 N.ar    1  LIG1       -0.1091
      8 N          -1.4858    0.1747    0.0000 N.ar    1  LIG1       -0.1356
      9 C          -1.0009   -0.4928    0.0000 C.ar    1  LIG1        0.1284
     10 N          -0.2163   -0.2378    0.0000 N.ar    1  LIG1       -0.2315
     11 H           2.1665   -0.7885    0.0000 H       1  LIG1        0.0903
     12 H           0.4982    2.0822    0.0000 H       1  LIG1        0.1920
     13 H          -1.3413   -1.5404    0.0000 H       1  LIG1        0.1053
@<TRIPOS>BOND
     1     1     2    2
     2     2     3   ar
     3     3     4   ar
     4     4     5   ar
     5     5     6   ar
     6     6     7   ar
     7     7     8   ar
     8     8     9   ar
     9     9    10   ar
    10     2    10   ar
    11     6    10   ar
    12     3    11    1
    13     5    12    1
    14     9    13    1
