@<TRIPOS>MOLECULE
Cn1cnc(=O)c2cnccc12
 19 20 0 0 0
SMALL
GASTEIGER
Energy = 0

@<TRIPOS>ATOM
      1 C           0.5754   -1.6927    0.0000 C.3     1  LIG1        0.0132
      2 N           0.5754   -0.8677    0.0000 N.ar    1  LIG1       -0.3341
      3 C           1.2898   -0.4552    0.0000 C.ar    1  LIG1        0.1000
      4 N           1.2898    0.3698    0.0000 N.ar    1  LIG1       -0.1988
      5 C           0.5754    0.7823    0.0000 C.ar    1  LIG1        0.2822
      6 O           0.5754    1.6073    0.0000 O.2     1  LIG1       -0.2651
      7 C          -0.1391    0.3698    0.0000 C.ar    1  LIG1        0.0827
      8 C          -0.8536    0.7823    0.0000 C.ar    1  LIG1        0.0419
      9 N          -1.5681    0.3698    0.0000 N.ar    1  LIG1       -0.2624
     10 C          -1.5681   -0.4552    0.0000 C.ar    1  LIG1        0.0295
     11 C          -0.8536   -0.8677    0.0000 C.ar    1  LIG1       -0.0193
     12 C          -0.1391   -0.4552    0.0000 C.ar    1  LIG1        0.0580
     13 H           1.6500   -2.0732    0.0000 H       1  LIG1        0.0456
     14 H           0.0169   -2.0874   -0.9121 H       1  LIG1        0.0456
     15 H           0.0452   -2.0674    0.9370 H       1  LIG1        0.0456
     16 H           2.2437   -1.0059    0.0000 H       1  LIG1        0.1030
     17 H          -0.8536    1.8838    0.0000 H       1  LIG1        0.0838
     18 H          -2.5220   -1.0060    0.0000 H       1  LIG1        0.0830
     19 H          -0.8536   -1.9692    0.0000 H       1  LIG1        0.0653
@<TRIPOS>BOND
     1     1     2    1
     2     2     3   ar
     3     3     4   ar
     4     4     5   ar
     5     5     6    2
     6     5     7   ar
     7     7     8   ar
     8     8     9   ar
     9     9    10   ar
    10    10    11   ar
    11    11    12   ar
    12     2    12   ar
    13     7    12   ar
    14     1    13    1
    15     1    14    1
    16     1    15    1
    17     3    16    1
    18     8    17    1
    19    10    18    1
    20    11    19    1
