@<TRIPOS>MOLECULE
O=c1[nH]cnc2ocnc12
 13 14 0 0 0
SMALL
GASTEIGER
Energy = 0

@<TRIPOS>ATOM
      1 O          -0.5026   -1.4692    0.0000 O.2     1  LIG1       -0.2654
      2 C          -0.5026   -0.6442    0.0000 C.ar    1  LIG1        0.2807
      3 N          -1.2171   -0.2317    0.0000 N.ar    1  LIG1       -0.3115
      4 C          -1.2171    0.5933    0.0000 C.ar    1  LIG1        0.0999
      5 N          -0.5026    1.0058    0.0000 N.ar    1  LIG1       -0.2010
      6 C           0.2119    0.5933    0.0000 C.ar    1  LIG1        0.2541
      7 C           0.2119   -0.2317    0.0000 C.ar    1  LIG1        0.1928
      8 N           0.9965   -0.4866    0.0000 N.ar    1  LIG1       -0.2089
      9 C           1.4814    0.1808    0.0000 C.ar    1  LIG1        0.1852
     10 O           0.9965    0.8483    0.0000 O.2     1  LIG1       -0.4242
     11 H          -2.1546   -0.7730    0.0000 H       1  LIG1        0.1698
     12 H          -2.1710    1.1441    0.0000 H       1  LIG1        0.1029
     13 H           2.5829    0.1808    0.0000 H       1  LIG1        0.1256
@<TRIPOS>BOND
     1     1     2    2
     2     2     3   ar
     3     3     4   ar
     4     4     5   ar
     5     5     6   ar
     6     6     7   ar
     7     2     7   ar
     8     7     8   ar
     9     8     9   ar
    10     9    10   ar
    11     6    10   ar
    12     3    11    1
    13     4    12    1
    14     9    13    1
