@<TRIPOS>MOLECULE
Cn1cc2cncnc2nc1=O
 18 19 0 0 0
SMALL
GASTEIGER
Energy = 0

@<TRIPOS>ATOM
      1 C           1.7588    0.8566    0.0000 C.3     1  LIG1        0.0162
      2 N           1.0443    0.4441    0.0000 N.ar    1  LIG1       -0.3014
      3 C           0.3299    0.8566    0.0000 C.ar    1  LIG1        0.0212
      4 C          -0.3846    0.4441    0.0000 C.ar    1  LIG1        0.0536
      5 C          -1.0991    0.8566    0.0000 C.ar    1  LIG1        0.0414
      6 N          -1.8135    0.4441    0.0000 N.ar    1  LIG1       -0.2429
      7 C          -1.8135   -0.3809    0.0000 C.ar    1  LIG1        0.1183
      8 N          -1.0991   -0.7934    0.0000 N.ar    1  LIG1       -0.2158
      9 C          -0.3846   -0.3809    0.0000 C.ar    1  LIG1        0.1695
     10 N           0.3299   -0.7934    0.0000 N.ar    1  LIG1       -0.1731
     11 C           1.0443   -0.3809    0.0000 C.ar    1  LIG1        0.3501
     12 O           1.7588   -0.7934    0.0000 O.2     1  LIG1       -0.2444
     13 H           1.5511    1.9775    0.0000 H       1  LIG1        0.0457
     14 H           2.3798    0.5703   -0.9121 H       1  LIG1        0.0457
     15 H           2.3485    0.5848    0.9370 H       1  LIG1        0.0457
     16 H           0.3299    1.9581    0.0000 H       1  LIG1        0.0818
     17 H          -1.0991    1.9581    0.0000 H       1  LIG1        0.0838
     18 H          -2.7674   -0.9316    0.0000 H       1  LIG1        0.1047
@<TRIPOS>BOND
     1     1     2    1
     2     2     3   ar
     3     3     4   ar
     4     4     5   ar
     5     5     6   ar
     6     6     7   ar
     7     7     8   ar
     8     8     9   ar
     9     4     9   ar
    10     9    10   ar
    11    10    11   ar
    12     2    11   ar
    13    11    12    2
    14     1    13    1
    15     1    14    1
    16     1    15    1
    17     3    16    1
    18     5    17    1
    19     7    18    1
