@<TRIPOS>MOLECULE
O=c1ncnc2[nH]cccc12
 16 17 0 0 0
SMALL
GASTEIGER
Energy = 0

@<TRIPOS>ATOM
      1 O           0.6140   -1.4816    0.0000 O.2     1  LIG1       -0.2651
      2 C           0.6140   -0.6566    0.0000 C.ar    1  LIG1        0.2823
      3 N           1.3284   -0.2441    0.0000 N.ar    1  LIG1       -0.1970
      4 C           1.3284    0.5809    0.0000 C.ar    1  LIG1        0.1222
      5 N           0.6140    0.9934    0.0000 N.ar    1  LIG1       -0.2177
      6 C          -0.1005    0.5809    0.0000 C.ar    1  LIG1        0.1451
      7 N          -0.8150    0.9934    0.0000 N.ar    1  LIG1       -0.3457
      8 C          -1.5295    0.5809    0.0000 C.ar    1  LIG1        0.0035
      9 C          -1.5295   -0.2441    0.0000 C.ar    1  LIG1       -0.0449
     10 C          -0.8150   -0.6566    0.0000 C.ar    1  LIG1       -0.0445
     11 C          -0.1005   -0.2441    0.0000 C.ar    1  LIG1        0.0835
     12 H           2.2823    1.1316    0.0000 H       1  LIG1        0.1049
     13 H          -0.8150    2.0759    0.0000 H       1  LIG1        0.1668
     14 H          -2.4834    1.1317    0.0000 H       1  LIG1        0.0807
     15 H          -2.4834   -0.7949    0.0000 H       1  LIG1        0.0632
     16 H          -0.8150   -1.7581    0.0000 H       1  LIG1        0.0627
@<TRIPOS>BOND
     1     1     2    2
     2     2     3   ar
     3     3     4   ar
     4     4     5   ar
     5     5     6   ar
     6     6     7   ar
     7     7     8   ar
     8     8     9   ar
     9     9    10   ar
    10    10    11   ar
    11     2    11   ar
    12     6    11   ar
    13     4    12    1
    14     7    13    1
    15     8    14    1
    16     9    15    1
    17    10    16    1
