@<TRIPOS>MOLECULE
c1[nH]cc2nccnc12
 14 15 0 0 0
SMALL
GASTEIGER
Energy = 0

@<TRIPOS>ATOM
      1 N           1.4248    0.0000    0.0000 N.ar    1  LIG1       -0.3634
      2 C           0.9399    0.6674    0.0000 C.ar    1  LIG1        0.0295
      3 C           0.1552    0.4125    0.0000 C.ar    1  LIG1        0.1064
      4 N          -0.5592    0.8250    0.0000 N.ar    1  LIG1       -0.2504
      5 C          -1.2737    0.4125    0.0000 C.ar    1  LIG1        0.0464
      6 C          -1.2737   -0.4125    0.0000 C.ar    1  LIG1        0.0464
      7 N          -0.5592   -0.8250    0.0000 N.ar    1  LIG1       -0.2504
      8 C           0.1552   -0.4125    0.0000 C.ar    1  LIG1        0.1064
      9 C           0.9399   -0.6674    0.0000 C.ar    1  LIG1        0.0295
     10 H           2.5073    0.0000    0.0000 H       1  LIG1        0.1649
     11 H           1.2803    1.7150    0.0000 H       1  LIG1        0.0829
     12 H          -2.2276    0.9633    0.0000 H       1  LIG1        0.0845
     13 H          -2.2276   -0.9633    0.0000 H       1  LIG1        0.0845
     14 H           1.2803   -1.7150    0.0000 H       1  LIG1        0.0829
@<TRIPOS>BOND
     1     1     2   ar
     2     2     3   ar
     3     3     4   ar
     4     4     5   ar
     5     5     6   ar
     6     6     7   ar
     7     7     8   ar
     8     3     8   ar
     9     8     9   ar
    10     1     9   ar
    11     1    10    1
    12     2    11    1
    13     5    12    1
    14     6    13    1
    15     9    14    1
