@<TRIPOS>MOLECULE
Cn1cnc2occc2c1=O
 17 18 0 0 0
SMALL
GASTEIGER
Energy = 0

@<TRIPOS>ATOM
      1 C          -1.7567   -0.5972    0.0000 C.3     1  LIG1        0.0161
      2 N          -1.0423   -0.1847    0.0000 N.ar    1  LIG1       -0.3017
      3 C          -1.0423    0.6403    0.0000 C.ar    1  LIG1        0.1022
      4 N          -0.3278    1.0528    0.0000 N.ar    1  LIG1       -0.2022
      5 C           0.3867    0.6403    0.0000 C.ar    1  LIG1        0.2336
      6 C           0.3867   -0.1847    0.0000 C.ar    1  LIG1        0.1041
      7 C           1.1713   -0.4396    0.0000 C.ar    1  LIG1       -0.0092
      8 C           1.6562    0.2278    0.0000 C.ar    1  LIG1        0.0953
      9 O           1.1713    0.8952    0.0000 O.2     1  LIG1       -0.4448
     10 C          -0.3278   -0.5972    0.0000 C.ar    1  LIG1        0.2646
     11 O          -0.3278   -1.4222    0.0000 O.2     1  LIG1       -0.2668
     12 H          -2.6236    0.1431    0.0000 H       1  LIG1        0.0457
     13 H          -1.8192   -1.2782    0.9121 H       1  LIG1        0.0457
     14 H          -1.8161   -1.2438   -0.9370 H       1  LIG1        0.0457
     15 H          -1.9962    1.1911    0.0000 H       1  LIG1        0.1031
     16 H           1.5117   -1.4872    0.0000 H       1  LIG1        0.0657
     17 H           2.7577    0.2278    0.0000 H       1  LIG1        0.1030
@<TRIPOS>BOND
     1     1     2    1
     2     2     3   ar
     3     3     4   ar
     4     4     5   ar
     5     5     6   ar
     6     6     7   ar
     7     7     8   ar
     8     8     9   ar
     9     5     9   ar
    10     6    10   ar
    11     2    10   ar
    12    10    11    2
    13     1    12    1
    14     1    13    1
    15     1    14    1
    16     3    15    1
    17     7    16    1
    18     8    17    1
