@<TRIPOS>MOLECULE
c1cc2c[nH]cc2o1
 13 14 0 0 0
SMALL
GASTEIGER
Energy = 0

@<TRIPOS>ATOM
      1 N           1.2754   -0.0261    0.0000 N.ar    1  LIG1       -0.3634
      2 C           0.7905    0.6414    0.0000 C.ar    1  LIG1        0.0451
      3 C           0.0058    0.3864    0.0000 C.ar    1  LIG1        0.1520
      4 O          -0.7788    0.6414    0.0000 O.2     1  LIG1       -0.4614
      5 C          -1.2637   -0.0261    0.0000 C.ar    1  LIG1        0.0932
      6 C          -0.7788   -0.6935    0.0000 C.ar    1  LIG1       -0.0147
      7 C           0.0058   -0.4386    0.0000 C.ar    1  LIG1        0.0374
      8 C           0.7905   -0.6935    0.0000 C.ar    1  LIG1        0.0125
      9 H           2.3579   -0.0261    0.0000 H       1  LIG1        0.1649
     10 H           1.1309    1.6890    0.0000 H       1  LIG1        0.0844
     11 H          -2.3652   -0.0261    0.0000 H       1  LIG1        0.1030
     12 H          -1.1192   -1.7411    0.0000 H       1  LIG1        0.0655
     13 H           1.1309   -1.7411    0.0000 H       1  LIG1        0.0814
@<TRIPOS>BOND
     1     1     2   ar
     2     2     3   ar
     3     3     4   ar
     4     4     5   ar
     5     5     6   ar
     6     6     7   ar
     7     3     7   ar
     8     7     8   ar
     9     1     8   ar
    10     1     9    1
    11     2    10    1
    12     5    11    1
    13     6    12    1
    14     8    13    1
