@<TRIPOS>MOLECULE
Cn1c(=O)ccc2occc12
 18 19 0 0 0
SMALL
GASTEIGER
Energy = 0

@<TRIPOS>ATOM
      1 C          -0.3023   -1.4248    0.0000 C.3     1  LIG1        0.0154
      2 N          -0.3023   -0.5998    0.0000 N.ar    1  LIG1       -0.3085
      3 C          -1.0168   -0.1873    0.0000 C.ar    1  LIG1        0.2517
      4 O          -1.7313   -0.5998    0.0000 O.2     1  LIG1       -0.2677
      5 C          -1.0168    0.6377    0.0000 C.ar    1  LIG1        0.0065
      6 C          -0.3023    1.0502    0.0000 C.ar    1  LIG1       -0.0122
      7 C           0.4122    0.6377    0.0000 C.ar    1  LIG1        0.1513
      8 C           0.4122   -0.1873    0.0000 C.ar    1  LIG1        0.0900
      9 C           1.1968   -0.4422    0.0000 C.ar    1  LIG1        0.0004
     10 C           1.6817    0.2252    0.0000 C.ar    1  LIG1        0.0946
     11 O           1.1968    0.8927    0.0000 O.2     1  LIG1       -0.4614
     12 H          -1.3769   -1.8053    0.0000 H       1  LIG1        0.0457
     13 H           0.2562   -1.8195    0.9121 H       1  LIG1        0.0457
     14 H           0.2279   -1.7995   -0.9370 H       1  LIG1        0.0457
     15 H          -1.9707    1.1885    0.0000 H       1  LIG1        0.0673
     16 H          -0.3023    2.1517    0.0000 H       1  LIG1        0.0657
     17 H           1.5372   -1.4898    0.0000 H       1  LIG1        0.0670
     18 H           2.7832    0.2252    0.0000 H       1  LIG1        0.1030
@<TRIPOS>BOND
     1     1     2    1
     2     2     3   ar
     3     3     4    2
     4     3     5   ar
     5     5     6   ar
     6     6     7   ar
     7     7     8   ar
     8     2     8   ar
     9     8     9   ar
    10     9    10   ar
    11    10    11   ar
    12     7    11   ar
    13     1    12    1
    14     1    13    1
    15     1    14    1
    16     5    15    1
    17     6    16    1
    18     9    17    1
    19    10    18    1
