@<TRIPOS>MOLECULE
c1cc2cncnc2nn1
 14 15 0 0 0
SMALL
GASTEIGER
Energy = 0

@<TRIPOS>ATOM
      1 C           1.4289    0.4382    0.0000 C.ar    1  LIG1        0.0507
      2 C           0.7145    0.8507    0.0000 C.ar    1  LIG1       -0.0297
      3 C          -0.0000    0.4382    0.0000 C.ar    1  LIG1        0.0405
      4 C          -0.7145    0.8507    0.0000 C.ar    1  LIG1        0.0401
      5 N          -1.4289    0.4382    0.0000 N.ar    1  LIG1       -0.2430
      6 C          -1.4289   -0.3868    0.0000 C.ar    1  LIG1        0.1184
      7 N          -0.7145   -0.7993    0.0000 N.ar    1  LIG1       -0.2144
      8 C          -0.0000   -0.3868    0.0000 C.ar    1  LIG1        0.1847
      9 N           0.7145   -0.7993    0.0000 N.ar    1  LIG1       -0.1291
     10 N           1.4289   -0.3868    0.0000 N.ar    1  LIG1       -0.1556
     11 H           2.3828    0.9889    0.0000 H       1  LIG1        0.0848
     12 H           0.7145    1.9522    0.0000 H       1  LIG1        0.0641
     13 H          -0.7145    1.9522    0.0000 H       1  LIG1        0.0837
     14 H          -2.3828   -0.9375    0.0000 H       1  LIG1        0.1047
@<TRIPOS>BOND
     1     1     2   ar
     2     2     3   ar
     3     3     4   ar
     4     4     5   ar
     5     5     6   ar
     6     6     7   ar
     7     7     8   ar
     8     3     8   ar
     9     8     9   ar
    10     9    10   ar
    11     1    10   ar
    12     1    11    1
    13     2    12    1
    14     4    13    1
    15     6    14    1
