@<TRIPOS>MOLECULE
c1cn2ccccc2n1
 15 16 0 0 0
SMALL
GASTEIGER
Energy = 0

@<TRIPOS>ATOM
      1 C           1.2878    0.4170    0.0000 C.ar    1  LIG1       -0.0451
      2 C           0.5733    0.8295    0.0000 C.ar    1  LIG1        0.0112
      3 N          -0.1412    0.4170    0.0000 N.ar    1  LIG1       -0.3066
      4 C          -0.9258    0.6720    0.0000 C.ar    1  LIG1        0.0293
      5 C          -1.4107    0.0045    0.0000 C.ar    1  LIG1        0.0464
      6 N          -0.9258   -0.6629    0.0000 N.ar    1  LIG1       -0.2361
      7 C          -0.1412   -0.4080    0.0000 C.ar    1  LIG1        0.1375
      8 C           0.5733   -0.8205    0.0000 C.ar    1  LIG1       -0.0188
      9 C           1.2878   -0.4080    0.0000 C.ar    1  LIG1       -0.0569
     10 H           2.2417    0.9678    0.0000 H       1  LIG1        0.0632
     11 H           0.5733    1.9310    0.0000 H       1  LIG1        0.0813
     12 H          -1.2662    1.7196    0.0000 H       1  LIG1        0.0829
     13 H          -2.5122    0.0045    0.0000 H       1  LIG1        0.0845
     14 H           0.5733   -1.9220    0.0000 H       1  LIG1        0.0654
     15 H           2.2417   -0.9588    0.0000 H       1  LIG1        0.0619
@<TRIPOS>BOND
     1     1     2   ar
     2     2     3   ar
     3     3     4   ar
     4     4     5   ar
     5     5     6   ar
     6     6     7   ar
     7     3     7   ar
     8     7     8   ar
     9     8     9   ar
    10     1     9   ar
    11     1    10    1
    12     2    11    1
    13     4    12    1
    14     5    13    1
    15     8    14    1
    16     9    15    1
