@<TRIPOS>MOLECULE
O=c1[nH]ncc2ccccc12
 17 18 0 0 0
SMALL
GASTEIGER
Energy = 0

@<TRIPOS>ATOM
      1 O           0.5922   -1.4616    0.0000 O.2     1  LIG1       -0.2658
      2 C           0.5922   -0.6366    0.0000 C.ar    1  LIG1        0.2724
      3 N           1.3066   -0.2241    0.0000 N.ar    1  LIG1       -0.2427
      4 N           1.3066    0.6009    0.0000 N.ar    1  LIG1       -0.1788
      5 C           0.5922    1.0134    0.0000 C.ar    1  LIG1        0.0557
      6 C          -0.1223    0.6009    0.0000 C.ar    1  LIG1        0.0071
      7 C          -0.8368    1.0134    0.0000 C.ar    1  LIG1       -0.0524
      8 C          -1.5513    0.6009    0.0000 C.ar    1  LIG1       -0.0611
      9 C          -1.5513   -0.2241    0.0000 C.ar    1  LIG1       -0.0610
     10 C          -0.8368   -0.6366    0.0000 C.ar    1  LIG1       -0.0488
     11 C          -0.1223   -0.2241    0.0000 C.ar    1  LIG1        0.0493
     12 H           2.2441   -0.7653    0.0000 H       1  LIG1        0.1921
     13 H           0.5922    2.1149    0.0000 H       1  LIG1        0.0853
     14 H          -0.8368    2.1149    0.0000 H       1  LIG1        0.0624
     15 H          -2.5052    1.1517    0.0000 H       1  LIG1        0.0618
     16 H          -2.5052   -0.7749    0.0000 H       1  LIG1        0.0618
     17 H          -0.8368   -1.7381    0.0000 H       1  LIG1        0.0625
@<TRIPOS>BOND
     1     1     2    2
     2     2     3   ar
     3     3     4   ar
     4     4     5   ar
     5     5     6   ar
     6     6     7   ar
     7     7     8   ar
     8     8     9   ar
     9     9    10   ar
    10    10    11   ar
    11     2    11   ar
    12     6    11   ar
    13     3    12    1
    14     5    13    1
    15     7    14    1
    16     8    15    1
    17     9    16    1
    18    10    17    1
