@<TRIPOS>MOLECULE
c1ncc2nnncc2n1
 13 14 0 0 0
SMALL
GASTEIGER
Energy = 0

@<TRIPOS>ATOM
      1 C           1.4509   -0.4188    0.0000 C.ar    1  LIG1        0.1168
      2 N           1.4509    0.4062    0.0000 N.ar    1  LIG1       -0.2415
      3 C           0.7364    0.8187    0.0000 C.ar    1  LIG1        0.0586
      4 C           0.0219    0.4062    0.0000 C.ar    1  LIG1        0.1327
      5 N          -0.6925    0.8187    0.0000 N.ar    1  LIG1       -0.1262
      6 N          -1.4070    0.4062    0.0000 N.ar    1  LIG1       -0.0426
      7 N          -1.4070   -0.4188    0.0000 N.ar    1  LIG1       -0.1356
      8 C          -0.6925   -0.8313    0.0000 C.ar    1  LIG1        0.0792
      9 C           0.0219   -0.4188    0.0000 C.ar    1  LIG1        0.1140
     10 N           0.7364   -0.8313    0.0000 N.ar    1  LIG1       -0.2322
     11 H           2.4048   -0.9696    0.0000 H       1  LIG1        0.1047
     12 H           0.7364    1.9202    0.0000 H       1  LIG1        0.0853
     13 H          -0.6925   -1.9328    0.0000 H       1  LIG1        0.0871
@<TRIPOS>BOND
     1     1     2   ar
     2     2     3   ar
     3     3     4   ar
     4     4     5   ar
     5     5     6   ar
     6     6     7   ar
     7     7     8   ar
     8     8     9   ar
     9     4     9   ar
    10     9    10   ar
    11     1    10   ar
    12     1    11    1
    13     3    12    1
    14     8    13    1
