@<TRIPOS>MOLECULE
O=c1cc2ncon2cn1
 13 14 0 0 0
SMALL
GASTEIGER
Energy = 0

@<TRIPOS>ATOM
      1 O           1.7717    0.7488    0.0000 O.2     1  LIG1       -0.2657
      2 C           1.0572    0.3363    0.0000 C.ar    1  LIG1        0.2752
      3 C           0.3427    0.7488    0.0000 C.ar    1  LIG1        0.0503
      4 C          -0.3718    0.3363    0.0000 C.ar    1  LIG1        0.1791
      5 N          -1.1564    0.5912    0.0000 N.ar    1  LIG1       -0.1964
      6 C          -1.6413   -0.0762    0.0000 C.ar    1  LIG1        0.2127
      7 O          -1.1564   -0.7437    0.0000 O.2     1  LIG1       -0.3583
      8 N          -0.3718   -0.4887    0.0000 N.ar    1  LIG1       -0.1456
      9 C           0.3427   -0.9012    0.0000 C.ar    1  LIG1        0.1391
     10 N           1.0572   -0.4887    0.0000 N.ar    1  LIG1       -0.1960
     11 H           0.3427    1.8503    0.0000 H       1  LIG1        0.0710
     12 H          -2.7428   -0.0762    0.0000 H       1  LIG1        0.1282
     13 H           0.3427   -2.0027    0.0000 H       1  LIG1        0.1064
@<TRIPOS>BOND
     1     1     2    2
     2     2     3   ar
     3     3     4   ar
     4     4     5   ar
     5     5     6   ar
     6     6     7   ar
     7     7     8   ar
     8     4     8   ar
     9     8     9   ar
    10     9    10   ar
    11     2    10   ar
    12     3    11    1
    13     6    12    1
    14     9    13    1
