@<TRIPOS>MOLECULE
Cn1cccc2oc(=O)nc12
 17 18 0 0 0
SMALL
GASTEIGER
Energy = 0

@<TRIPOS>ATOM
      1 C           0.7895   -1.5103    0.0000 C.3     1  LIG1        0.0133
      2 N           0.7895   -0.6853    0.0000 N.ar    1  LIG1       -0.3323
      3 C           1.5040   -0.2728    0.0000 C.ar    1  LIG1        0.0063
      4 C           1.5040    0.5522    0.0000 C.ar    1  LIG1       -0.0419
      5 C           0.7895    0.9647    0.0000 C.ar    1  LIG1       -0.0141
      6 C           0.0750    0.5522    0.0000 C.ar    1  LIG1        0.1760
      7 O          -0.7096    0.8072    0.0000 O.2     1  LIG1       -0.4046
      8 C          -1.1945    0.1397    0.0000 C.ar    1  LIG1        0.4422
      9 O          -2.0195    0.1397    0.0000 O.2     1  LIG1       -0.2207
     10 N          -0.7096   -0.5277    0.0000 N.ar    1  LIG1       -0.1539
     11 C           0.0750   -0.2728    0.0000 C.ar    1  LIG1        0.1831
     12 H           1.8641   -1.8908    0.0000 H       1  LIG1        0.0456
     13 H           0.2310   -1.9050   -0.9121 H       1  LIG1        0.0456
     14 H           0.2593   -1.8850    0.9370 H       1  LIG1        0.0456
     15 H           2.4579   -0.8236    0.0000 H       1  LIG1        0.0809
     16 H           2.4579    1.1030    0.0000 H       1  LIG1        0.0633
     17 H           0.7895    2.0662    0.0000 H       1  LIG1        0.0656
@<TRIPOS>BOND
     1     1     2    1
     2     2     3   ar
     3     3     4   ar
     4     4     5   ar
     5     5     6   ar
     6     6     7   ar
     7     7     8   ar
     8     8     9    2
     9     8    10   ar
    10    10    11   ar
    11     2    11   ar
    12     6    11   ar
    13     1    12    1
    14     1    13    1
    15     1    14    1
    16     3    15    1
    17     4    16    1
    18     5    17    1
