@<TRIPOS>MOLECULE
Cn1cnc(=O)c2ocnc12
 16 17 0 0 0
SMALL
GASTEIGER
Energy = 0

@<TRIPOS>ATOM
      1 C          -0.4613   -1.6985    0.0000 C.3     1  LIG1        0.0147
      2 N          -0.4613   -0.8735    0.0000 N.ar    1  LIG1       -0.3166
      3 C          -1.1758   -0.4610    0.0000 C.ar    1  LIG1        0.1013
      4 N          -1.1758    0.3640    0.0000 N.ar    1  LIG1       -0.1961
      5 C          -0.4613    0.7765    0.0000 C.ar    1  LIG1        0.3177
      6 O          -0.4613    1.6015    0.0000 O.2     1  LIG1       -0.2617
      7 C           0.2532    0.3640    0.0000 C.ar    1  LIG1        0.2378
      8 C           0.2532   -0.4610    0.0000 C.ar    1  LIG1        0.1858
      9 N           1.0378   -0.7160    0.0000 N.ar    1  LIG1       -0.1979
     10 C           1.5227   -0.0485    0.0000 C.ar    1  LIG1        0.1848
     11 O           1.0378    0.6189    0.0000 O.2     1  LIG1       -0.4353
     12 H          -1.5359   -2.0790    0.0000 H       1  LIG1        0.0457
     13 H           0.0972   -2.0932    0.9121 H       1  LIG1        0.0457
     14 H           0.0689   -2.0732   -0.9370 H       1  LIG1        0.0457
     15 H          -2.1297   -1.0118    0.0000 H       1  LIG1        0.1030
     16 H           2.6242   -0.0485    0.0000 H       1  LIG1        0.1255
@<TRIPOS>BOND
     1     1     2    1
     2     2     3   ar
     3     3     4   ar
     4     4     5   ar
     5     5     6    2
     6     5     7   ar
     7     7     8   ar
     8     2     8   ar
     9     8     9   ar
    10     9    10   ar
    11    10    11   ar
    12     7    11   ar
    13     1    12    1
    14     1    13    1
    15     1    14    1
    16     3    15    1
    17    10    16    1
