@<TRIPOS>MOLECULE
O=c1cc[nH]c2ccccc12
 18 19 0 0 0
SMALL
GASTEIGER
Energy = 0

@<TRIPOS>ATOM
      1 O           0.6214   -1.4708    0.0000 O.2     1  LIG1       -0.2872
      2 C           0.6214   -0.6458    0.0000 C.ar    1  LIG1        0.1894
      3 C           1.3358   -0.2333    0.0000 C.ar    1  LIG1        0.0017
      4 C           1.3358    0.5917    0.0000 C.ar    1  LIG1        0.0058
      5 N           0.6214    1.0042    0.0000 N.ar    1  LIG1       -0.3604
      6 C          -0.0931    0.5917    0.0000 C.ar    1  LIG1        0.0501
      7 C          -0.8076    1.0042    0.0000 C.ar    1  LIG1       -0.0377
      8 C          -1.5220    0.5917    0.0000 C.ar    1  LIG1       -0.0598
      9 C          -1.5220   -0.2333    0.0000 C.ar    1  LIG1       -0.0610
     10 C          -0.8076   -0.6458    0.0000 C.ar    1  LIG1       -0.0490
     11 C          -0.0931   -0.2333    0.0000 C.ar    1  LIG1        0.0450
     12 H           2.2897   -0.7840    0.0000 H       1  LIG1        0.0670
     13 H           2.2897    1.1424    0.0000 H       1  LIG1        0.0808
     14 H           0.6214    2.0867    0.0000 H       1  LIG1        0.1653
     15 H          -0.8076    2.1057    0.0000 H       1  LIG1        0.0638
     16 H          -2.4759    1.1424    0.0000 H       1  LIG1        0.0618
     17 H          -2.4759   -0.7840    0.0000 H       1  LIG1        0.0618
     18 H          -0.8076   -1.7473    0.0000 H       1  LIG1        0.0625
@<TRIPOS>BOND
     1     1     2    2
     2     2     3   ar
     3     3     4   ar
     4     4     5   ar
     5     5     6   ar
     6     6     7   ar
     7     7     8   ar
     8     8     9   ar
     9     9    10   ar
    10    10    11   ar
    11     2    11   ar
    12     6    11   ar
    13     3    12    1
    14     4    13    1
    15     5    14    1
    16     7    15    1
    17     8    16    1
    18     9    17    1
    19    10    18    1
