@<TRIPOS>MOLECULE
Cn1ncc2nnncc12
 15 16 0 0 0
SMALL
GASTEIGER
Energy = 0

@<TRIPOS>ATOM
      1 C           1.1006   -1.3204    0.0000 C.3     1  LIG1        0.0310
      2 N           0.8456   -0.5358    0.0000 N.ar    1  LIG1       -0.2636
      3 N           1.3306    0.1316    0.0000 N.ar    1  LIG1       -0.1771
      4 C           0.8456    0.7991    0.0000 C.ar    1  LIG1        0.0772
      5 C           0.0610    0.5441    0.0000 C.ar    1  LIG1        0.1339
      6 N          -0.6535    0.9566    0.0000 N.ar    1  LIG1       -0.1262
      7 N          -1.3679    0.5441    0.0000 N.ar    1  LIG1       -0.0426
      8 N          -1.3679   -0.2809    0.0000 N.ar    1  LIG1       -0.1356
      9 C          -0.6535   -0.6934    0.0000 C.ar    1  LIG1        0.0787
     10 C           0.0610   -0.2809    0.0000 C.ar    1  LIG1        0.1084
     11 H           2.2402   -1.3502    0.0000 H       1  LIG1        0.0473
     12 H           0.6915   -1.8684   -0.9121 H       1  LIG1        0.0473
     13 H           0.7121   -1.8407    0.9370 H       1  LIG1        0.0473
     14 H           1.1859    1.8467    0.0000 H       1  LIG1        0.0870
     15 H          -0.6535   -1.7949    0.0000 H       1  LIG1        0.0871
@<TRIPOS>BOND
     1     1     2    1
     2     2     3   ar
     3     3     4   ar
     4     4     5   ar
     5     5     6   ar
     6     6     7   ar
     7     7     8   ar
     8     8     9   ar
     9     9    10   ar
    10     2    10   ar
    11     5    10   ar
    12     1    11    1
    13     1    12    1
    14     1    13    1
    15     4    14    1
    16     9    15    1
