@<TRIPOS>MOLECULE
c1nnc2[nH]cncc12
 13 14 0 0 0
SMALL
GASTEIGER
Energy = 0

@<TRIPOS>ATOM
      1 N           0.5631   -0.8064    0.0000 N.ar    1  LIG1       -0.3291
      2 C           1.2776   -0.3939    0.0000 C.ar    1  LIG1        0.0948
      3 N           1.2776    0.4311    0.0000 N.ar    1  LIG1       -0.2449
      4 C           0.5631    0.8436    0.0000 C.ar    1  LIG1        0.0414
      5 C          -0.1514    0.4311    0.0000 C.ar    1  LIG1        0.0569
      6 C          -0.9360    0.6860    0.0000 C.ar    1  LIG1        0.0621
      7 N          -1.4209    0.0186    0.0000 N.ar    1  LIG1       -0.1549
      8 N          -0.9360   -0.6489    0.0000 N.ar    1  LIG1       -0.1309
      9 C          -0.1514   -0.3939    0.0000 C.ar    1  LIG1        0.1643
     10 H           0.5631   -1.8889    0.0000 H       1  LIG1        0.1682
     11 H           2.2315   -0.9447    0.0000 H       1  LIG1        0.1027
     12 H           0.5631    1.9451    0.0000 H       1  LIG1        0.0838
     13 H          -1.2764    1.7336    0.0000 H       1  LIG1        0.0856
@<TRIPOS>BOND
     1     1     2   ar
     2     2     3   ar
     3     3     4   ar
     4     4     5   ar
     5     5     6   ar
     6     6     7   ar
     7     7     8   ar
     8     8     9   ar
     9     1     9   ar
    10     5     9   ar
    11     1    10    1
    12     2    11    1
    13     4    12    1
    14     6    13    1
