@<TRIPOS>MOLECULE
Cn1nc2cc[nH]c2nc1=O
 17 18 0 0 0
SMALL
GASTEIGER
Energy = 0

@<TRIPOS>ATOM
      1 C           1.5773    0.8514    0.0000 C.3     1  LIG1        0.0354
      2 N           0.8629    0.4389    0.0000 N.ar    1  LIG1       -0.2156
      3 N           0.1484    0.8514    0.0000 N.ar    1  LIG1       -0.1641
      4 C          -0.5661    0.4389    0.0000 C.ar    1  LIG1        0.1279
      5 C          -1.3507    0.6938    0.0000 C.ar    1  LIG1       -0.0150
      6 C          -1.8356    0.0264    0.0000 C.ar    1  LIG1        0.0057
      7 N          -1.3507   -0.6411    0.0000 N.ar    1  LIG1       -0.3444
      8 C          -0.5661   -0.3861    0.0000 C.ar    1  LIG1        0.1637
      9 N           0.1484   -0.7986    0.0000 N.ar    1  LIG1       -0.1723
     10 C           0.8629   -0.3861    0.0000 C.ar    1  LIG1        0.3662
     11 O           1.5773   -0.7986    0.0000 O.2     1  LIG1       -0.2429
     12 H           1.3695    1.9723    0.0000 H       1  LIG1        0.0474
     13 H           2.1983    0.5651   -0.9121 H       1  LIG1        0.0474
     14 H           2.1670    0.5796    0.9370 H       1  LIG1        0.0474
     15 H          -1.6911    1.7414    0.0000 H       1  LIG1        0.0655
     16 H          -2.9371    0.0264    0.0000 H       1  LIG1        0.0808
     17 H          -1.6852   -1.6706    0.0000 H       1  LIG1        0.1668
@<TRIPOS>BOND
     1     1     2    1
     2     2     3   ar
     3     3     4   ar
     4     4     5   ar
     5     5     6   ar
     6     6     7   ar
     7     7     8   ar
     8     4     8   ar
     9     8     9   ar
    10     9    10   ar
    11     2    10   ar
    12    10    11    2
    13     1    12    1
    14     1    13    1
    15     1    14    1
    16     5    15    1
    17     6    16    1
    18     7    17    1
