@<TRIPOS>MOLECULE
O=c1cc[nH]c2cnc(=O)[nH]c12
 17 18 0 0 0
SMALL
GASTEIGER
Energy = 0

@<TRIPOS>ATOM
      1 O           1.9808    0.5797    0.0000 O.2     1  LIG1       -0.2447
      2 C           1.2663    0.1672    0.0000 C.ar    1  LIG1        0.3464
      3 N           0.5518    0.5797    0.0000 N.ar    1  LIG1       -0.3015
      4 C          -0.1627    0.1672    0.0000 C.ar    1  LIG1        0.1155
      5 C          -0.1627   -0.6578    0.0000 C.ar    1  LIG1        0.0852
      6 N          -0.8771   -1.0703    0.0000 N.ar    1  LIG1       -0.3581
      7 C          -1.5916   -0.6578    0.0000 C.ar    1  LIG1        0.0059
      8 C          -1.5916    0.1672    0.0000 C.ar    1  LIG1        0.0031
      9 C          -0.8771    0.5797    0.0000 C.ar    1  LIG1        0.2056
     10 O          -0.8771    1.4047    0.0000 O.2     1  LIG1       -0.2856
     11 C           0.5518   -1.0703    0.0000 C.ar    1  LIG1        0.0584
     12 N           1.2663   -0.6578    0.0000 N.ar    1  LIG1       -0.1994
     13 H           0.5518    1.6622    0.0000 H       1  LIG1        0.1706
     14 H          -0.8771   -2.1528    0.0000 H       1  LIG1        0.1654
     15 H          -2.5455   -1.2086    0.0000 H       1  LIG1        0.0808
     16 H          -2.5455    0.7180    0.0000 H       1  LIG1        0.0671
     17 H           0.5518   -2.1718    0.0000 H       1  LIG1        0.0853
@<TRIPOS>BOND
     1     1     2    2
     2     2     3   ar
     3     3     4   ar
     4     4     5   ar
     5     5     6   ar
     6     6     7   ar
     7     7     8   ar
     8     8     9   ar
     9     4     9   ar
    10     9    10    2
    11     5    11   ar
    12    11    12   ar
    13     2    12   ar
    14     3    13    1
    15     6    14    1
    16     7    15    1
    17     8    16    1
    18    11    17    1
