@<TRIPOS>MOLECULE
O=c1nc[nH]c2[nH]ccc12
 15 16 0 0 0
SMALL
GASTEIGER
Energy = 0

@<TRIPOS>ATOM
      1 O          -0.4720   -1.4636    0.0000 O.2     1  LIG1       -0.2651
      2 C          -0.4720   -0.6386    0.0000 C.ar    1  LIG1        0.2822
      3 N          -1.1865   -0.2261    0.0000 N.ar    1  LIG1       -0.1990
      4 C          -1.1865    0.5989    0.0000 C.ar    1  LIG1        0.0987
      5 N          -0.4720    1.0114    0.0000 N.ar    1  LIG1       -0.3318
      6 C           0.2424    0.5989    0.0000 C.ar    1  LIG1        0.1223
      7 C           0.2424   -0.2261    0.0000 C.ar    1  LIG1        0.0829
      8 C           1.0270   -0.4811    0.0000 C.ar    1  LIG1       -0.0299
      9 C           1.5120    0.1864    0.0000 C.ar    1  LIG1        0.0042
     10 N           1.0270    0.8538    0.0000 N.ar    1  LIG1       -0.3471
     11 H          -2.1404    1.1497    0.0000 H       1  LIG1        0.1028
     12 H          -0.4720    2.0939    0.0000 H       1  LIG1        0.1681
     13 H           1.3673   -1.5287    0.0000 H       1  LIG1        0.0641
     14 H           2.6135    0.1864    0.0000 H       1  LIG1        0.0807
     15 H           1.3615    1.8833    0.0000 H       1  LIG1        0.1667
@<TRIPOS>BOND
     1     1     2    2
     2     2     3   ar
     3     3     4   ar
     4     4     5   ar
     5     5     6   ar
     6     6     7   ar
     7     2     7   ar
     8     7     8   ar
     9     8     9   ar
    10     9    10   ar
    11     6    10   ar
    12     4    11    1
    13     5    12    1
    14     8    13    1
    15     9    14    1
    16    10    15    1
