@<TRIPOS>MOLECULE
Cn1c(=O)cnc2cccnc12
 19 20 0 0 0
SMALL
GASTEIGER
Energy = 0

@<TRIPOS>ATOM
      1 C           0.4270   -1.4251    0.0000 C.3     1  LIG1        0.0167
      2 N           0.4270   -0.6001    0.0000 N.ar    1  LIG1       -0.2935
      3 C           1.1415   -0.1876    0.0000 C.ar    1  LIG1        0.2708
      4 O           1.8559   -0.6001    0.0000 O.2     1  LIG1       -0.2660
      5 C           1.1415    0.6374    0.0000 C.ar    1  LIG1        0.0928
      6 N           0.4270    1.0499    0.0000 N.ar    1  LIG1       -0.2465
      7 C          -0.2875    0.6374    0.0000 C.ar    1  LIG1        0.1065
      8 C          -1.0019    1.0499    0.0000 C.ar    1  LIG1       -0.0313
      9 C          -1.7164    0.6374    0.0000 C.ar    1  LIG1       -0.0414
     10 C          -1.7164   -0.1876    0.0000 C.ar    1  LIG1        0.0300
     11 N          -1.0019   -0.6001    0.0000 N.ar    1  LIG1       -0.2357
     12 C          -0.2875   -0.1876    0.0000 C.ar    1  LIG1        0.1616
     13 H           1.5016   -1.8056    0.0000 H       1  LIG1        0.0457
     14 H          -0.1315   -1.8198   -0.9121 H       1  LIG1        0.0457
     15 H          -0.1032   -1.7998    0.9370 H       1  LIG1        0.0457
     16 H           2.0954    1.1882    0.0000 H       1  LIG1        0.0885
     17 H          -1.0019    2.1514    0.0000 H       1  LIG1        0.0640
     18 H          -2.6703    1.1882    0.0000 H       1  LIG1        0.0633
     19 H          -2.6703   -0.7384    0.0000 H       1  LIG1        0.0830
@<TRIPOS>BOND
     1     1     2    1
     2     2     3   ar
     3     3     4    2
     4     3     5   ar
     5     5     6   ar
     6     6     7   ar
     7     7     8   ar
     8     8     9   ar
     9     9    10   ar
    10    10    11   ar
    11    11    12   ar
    12     2    12   ar
    13     7    12   ar
    14     1    13    1
    15     1    14    1
    16     1    15    1
    17     5    16    1
    18     8    17    1
    19     9    18    1
    20    10    19    1
