@<TRIPOS>MOLECULE
Cn1[nH]c(=O)c2cncnc12
 17 18 0 0 0
SMALL
GASTEIGER
Energy = 0

@<TRIPOS>ATOM
      1 C           0.9594   -1.4773    0.0000 C.3     1  LIG1        0.0304
      2 N           0.7045   -0.6927    0.0000 N.ar    1  LIG1       -0.2694
      3 N           1.1894   -0.0252    0.0000 N.ar    1  LIG1       -0.2616
      4 C           0.7045    0.6422    0.0000 C.ar    1  LIG1        0.2754
      5 O           0.9594    1.4268    0.0000 O.2     1  LIG1       -0.2657
      6 C          -0.0801    0.3873    0.0000 C.ar    1  LIG1        0.1023
      7 C          -0.7946    0.7998    0.0000 C.ar    1  LIG1        0.0453
      8 N          -1.5091    0.3873    0.0000 N.ar    1  LIG1       -0.2428
      9 C          -1.5091   -0.4377    0.0000 C.ar    1  LIG1        0.1183
     10 N          -0.7946   -0.8502    0.0000 N.ar    1  LIG1       -0.2162
     11 C          -0.0801   -0.4377    0.0000 C.ar    1  LIG1        0.1633
     12 H           2.0990   -1.5072    0.0000 H       1  LIG1        0.0473
     13 H           0.5502   -2.0252   -0.9121 H       1  LIG1        0.0473
     14 H           0.5709   -1.9975    0.9370 H       1  LIG1        0.0473
     15 H           2.2719   -0.0252    0.0000 H       1  LIG1        0.1902
     16 H          -0.7946    1.9013    0.0000 H       1  LIG1        0.0839
     17 H          -2.4630   -0.9885    0.0000 H       1  LIG1        0.1047
@<TRIPOS>BOND
     1     1     2    1
     2     2     3   ar
     3     3     4   ar
     4     4     5    2
     5     4     6   ar
     6     6     7   ar
     7     7     8   ar
     8     8     9   ar
     9     9    10   ar
    10    10    11   ar
    11     2    11   ar
    12     6    11   ar
    13     1    12    1
    14     1    13    1
    15     1    14    1
    16     3    15    1
    17     7    16    1
    18     9    17    1
