@<TRIPOS>MOLECULE
c1nc2csnc2[nH]1
 11 12 0 0 0
SMALL
GASTEIGER
Energy = 0

@<TRIPOS>ATOM
      1 N           0.9803   -0.6565    0.0000 N.ar    1  LIG1       -0.3288
      2 C           1.4652    0.0109    0.0000 C.ar    1  LIG1        0.0956
      3 N           0.9803    0.6783    0.0000 N.ar    1  LIG1       -0.2337
      4 C           0.1957    0.4234    0.0000 C.ar    1  LIG1        0.1162
      5 C          -0.5890    0.6783    0.0000 C.ar    1  LIG1        0.0233
      6 S          -1.0739    0.0109    0.0000 S.2     1  LIG1        0.0078
      7 N          -0.5890   -0.6565    0.0000 N.ar    1  LIG1       -0.1908
      8 C           0.1957   -0.4016    0.0000 C.ar    1  LIG1        0.1664
      9 H           1.3148   -1.6860    0.0000 H       1  LIG1        0.1683
     10 H           2.5667    0.0109    0.0000 H       1  LIG1        0.1027
     11 H          -0.9294    1.7259    0.0000 H       1  LIG1        0.0731
@<TRIPOS>BOND
     1     1     2   ar
     2     2     3   ar
     3     3     4   ar
     4     4     5   ar
     5     5     6   ar
     6     6     7   ar
     7     7     8   ar
     8     1     8   ar
     9     4     8   ar
    10     1     9    1
    11     2    10    1
    12     5    11    1
