@<TRIPOS>MOLECULE
c1cc2cnncc2cn1
 15 16 0 0 0
SMALL
GASTEIGER
Energy = 0

@<TRIPOS>ATOM
      1 C           1.4516    0.4190    0.0000 C.ar    1  LIG1        0.0282
      2 C           0.7371    0.8315    0.0000 C.ar    1  LIG1       -0.0343
      3 C           0.0226    0.4190    0.0000 C.ar    1  LIG1        0.0063
      4 C          -0.6919    0.8315    0.0000 C.ar    1  LIG1        0.0577
      5 N          -1.4063    0.4190    0.0000 N.ar    1  LIG1       -0.1571
      6 N          -1.4063   -0.4060    0.0000 N.ar    1  LIG1       -0.1570
      7 C          -0.6919   -0.8185    0.0000 C.ar    1  LIG1        0.0591
      8 C           0.0226   -0.4060    0.0000 C.ar    1  LIG1        0.0215
      9 C           0.7371   -0.8185    0.0000 C.ar    1  LIG1        0.0368
     10 N           1.4516   -0.4060    0.0000 N.ar    1  LIG1       -0.2626
     11 H           2.4055    0.9698    0.0000 H       1  LIG1        0.0830
     12 H           0.7371    1.9330    0.0000 H       1  LIG1        0.0639
     13 H          -0.6919    1.9330    0.0000 H       1  LIG1        0.0854
     14 H          -0.6919   -1.9200    0.0000 H       1  LIG1        0.0855
     15 H           0.7371   -1.9200    0.0000 H       1  LIG1        0.0836
@<TRIPOS>BOND
     1     1     2   ar
     2     2     3   ar
     3     3     4   ar
     4     4     5   ar
     5     5     6   ar
     6     6     7   ar
     7     7     8   ar
     8     3     8   ar
     9     8     9   ar
    10     9    10   ar
    11     1    10   ar
    12     1    11    1
    13     2    12    1
    14     4    13    1
    15     7    14    1
    16     9    15    1
