@<TRIPOS>MOLECULE
Cn1ncc(=O)n2ncnc12
 16 17 0 0 0
SMALL
GASTEIGER
Energy = 0

@<TRIPOS>ATOM
      1 C           0.4506   -1.6838    0.0000 C.3     1  LIG1        0.0339
      2 N           0.4506   -0.8588    0.0000 N.ar    1  LIG1       -0.2339
      3 N           1.1651   -0.4463    0.0000 N.ar    1  LIG1       -0.1715
      4 C           1.1651    0.3787    0.0000 C.ar    1  LIG1        0.1143
      5 C           0.4506    0.7912    0.0000 C.ar    1  LIG1        0.2942
      6 O           0.4506    1.6162    0.0000 O.2     1  LIG1       -0.2640
      7 N          -0.2639    0.3787    0.0000 N.ar    1  LIG1       -0.1586
      8 N          -1.0485    0.6337    0.0000 N.ar    1  LIG1       -0.1491
      9 C          -1.5334   -0.0338    0.0000 C.ar    1  LIG1        0.1407
     10 N          -1.0485   -0.7012    0.0000 N.ar    1  LIG1       -0.1976
     11 C          -0.2639   -0.4463    0.0000 C.ar    1  LIG1        0.2526
     12 H           1.5252   -2.0643    0.0000 H       1  LIG1        0.0474
     13 H          -0.1079   -2.0785   -0.9121 H       1  LIG1        0.0474
     14 H          -0.0796   -2.0585    0.9370 H       1  LIG1        0.0474
     15 H           2.1190    0.9295    0.0000 H       1  LIG1        0.0904
     16 H          -2.6349   -0.0338    0.0000 H       1  LIG1        0.1066
@<TRIPOS>BOND
     1     1     2    1
     2     2     3   ar
     3     3     4   ar
     4     4     5   ar
     5     5     6    2
     6     5     7   ar
     7     7     8   ar
     8     8     9   ar
     9     9    10   ar
    10    10    11   ar
    11     2    11   ar
    12     7    11   ar
    13     1    12    1
    14     1    13    1
    15     1    14    1
    16     4    15    1
    17     9    16    1
