@<TRIPOS>MOLECULE
Cn1cc2cnccc2nc1=O
 19 20 0 0 0
SMALL
GASTEIGER
Energy = 0

@<TRIPOS>ATOM
      1 C           1.7446    0.8464    0.0000 C.3     1  LIG1        0.0162
      2 N           1.0301    0.4339    0.0000 N.ar    1  LIG1       -0.3015
      3 C           0.3156    0.8464    0.0000 C.ar    1  LIG1        0.0197
      4 C          -0.3988    0.4339    0.0000 C.ar    1  LIG1        0.0348
      5 C          -1.1133    0.8464    0.0000 C.ar    1  LIG1        0.0381
      6 N          -1.8278    0.4339    0.0000 N.ar    1  LIG1       -0.2625
      7 C          -1.8278   -0.3911    0.0000 C.ar    1  LIG1        0.0296
      8 C          -1.1133   -0.8036    0.0000 C.ar    1  LIG1       -0.0174
      9 C          -0.3988   -0.3911    0.0000 C.ar    1  LIG1        0.0807
     10 N           0.3156   -0.8036    0.0000 N.ar    1  LIG1       -0.1928
     11 C           1.0301   -0.3911    0.0000 C.ar    1  LIG1        0.3487
     12 O           1.7446   -0.8036    0.0000 O.2     1  LIG1       -0.2445
     13 H           1.5369    1.9673    0.0000 H       1  LIG1        0.0457
     14 H           2.3656    0.5601   -0.9121 H       1  LIG1        0.0457
     15 H           2.3343    0.5746    0.9370 H       1  LIG1        0.0457
     16 H           0.3156    1.9479    0.0000 H       1  LIG1        0.0817
     17 H          -1.1133    1.9479    0.0000 H       1  LIG1        0.0837
     18 H          -2.7817   -0.9419    0.0000 H       1  LIG1        0.0830
     19 H          -1.1133   -1.9051    0.0000 H       1  LIG1        0.0654
@<TRIPOS>BOND
     1     1     2    1
     2     2     3   ar
     3     3     4   ar
     4     4     5   ar
     5     5     6   ar
     6     6     7   ar
     7     7     8   ar
     8     8     9   ar
     9     4     9   ar
    10     9    10   ar
    11    10    11   ar
    12     2    11   ar
    13    11    12    2
    14     1    13    1
    15     1    14    1
    16     1    15    1
    17     3    16    1
    18     5    17    1
    19     7    18    1
    20     8    19    1
