@<TRIPOS>MOLECULE
O=c1cc[nH]c2nc[nH]c12
 15 16 0 0 0
SMALL
GASTEIGER
Energy = 0

@<TRIPOS>ATOM
      1 O          -0.5060   -1.4597    0.0000 O.2     1  LIG1       -0.2855
      2 C          -0.5060   -0.6347    0.0000 C.ar    1  LIG1        0.2071
      3 C          -1.2205   -0.2222    0.0000 C.ar    1  LIG1        0.0032
      4 C          -1.2205    0.6028    0.0000 C.ar    1  LIG1        0.0072
      5 N          -0.5060    1.0153    0.0000 N.ar    1  LIG1       -0.3444
      6 C           0.2085    0.6028    0.0000 C.ar    1  LIG1        0.1599
      7 C           0.2085   -0.2222    0.0000 C.ar    1  LIG1        0.1304
      8 N           0.9931   -0.4772    0.0000 N.ar    1  LIG1       -0.3402
      9 C           1.4780    0.1903    0.0000 C.ar    1  LIG1        0.0962
     10 N           0.9931    0.8577    0.0000 N.ar    1  LIG1       -0.2183
     11 H          -2.1744   -0.7730    0.0000 H       1  LIG1        0.0671
     12 H          -2.1744    1.1536    0.0000 H       1  LIG1        0.0808
     13 H          -0.5060    2.0978    0.0000 H       1  LIG1        0.1668
     14 H           1.3276   -1.5067    0.0000 H       1  LIG1        0.1670
     15 H           2.5795    0.1903    0.0000 H       1  LIG1        0.1027
@<TRIPOS>BOND
     1     1     2    2
     2     2     3   ar
     3     3     4   ar
     4     4     5   ar
     5     5     6   ar
     6     6     7   ar
     7     2     7   ar
     8     7     8   ar
     9     8     9   ar
    10     9    10   ar
    11     6    10   ar
    12     3    11    1
    13     4    12    1
    14     5    13    1
    15     8    14    1
    16     9    15    1
