@<TRIPOS>MOLECULE
Cn1ccn2c(=O)[nH]nc2c1=O
 18 19 0 0 0
SMALL
GASTEIGER
Energy = 0

@<TRIPOS>ATOM
      1 C           1.9143   -0.7350    0.0000 C.3     1  LIG1        0.0149
      2 N           1.1998   -0.3225    0.0000 N.ar    1  LIG1       -0.3138
      3 C           1.1998    0.5025    0.0000 C.ar    1  LIG1        0.0244
      4 C           0.4853    0.9150    0.0000 C.ar    1  LIG1        0.0325
      5 N          -0.2292    0.5025    0.0000 N.ar    1  LIG1       -0.2452
      6 C          -1.0138    0.7574    0.0000 C.ar    1  LIG1        0.3486
      7 O          -1.2687    1.5421    0.0000 O.2     1  LIG1       -0.2446
      8 N          -1.4987    0.0900    0.0000 N.ar    1  LIG1       -0.2258
      9 N          -1.0138   -0.5774    0.0000 N.ar    1  LIG1       -0.1458
     10 C          -0.2292   -0.3225    0.0000 C.ar    1  LIG1        0.2266
     11 C           0.4853   -0.7350    0.0000 C.ar    1  LIG1        0.2959
     12 O           0.4853   -1.5600    0.0000 O.2     1  LIG1       -0.2636
     13 H           2.7811    0.0054    0.0000 H       1  LIG1        0.0457
     14 H           1.9769   -1.4160   -0.9121 H       1  LIG1        0.0457
     15 H           1.9737   -1.3816    0.9370 H       1  LIG1        0.0457
     16 H           2.1537    1.0533    0.0000 H       1  LIG1        0.0825
     17 H           0.4853    2.0165    0.0000 H       1  LIG1        0.0830
     18 H          -2.5812    0.0900    0.0000 H       1  LIG1        0.1937
@<TRIPOS>BOND
     1     1     2    1
     2     2     3   ar
     3     3     4   ar
     4     4     5   ar
     5     5     6   ar
     6     6     7    2
     7     6     8   ar
     8     8     9   ar
     9     9    10   ar
    10     5    10   ar
    11    10    11   ar
    12     2    11   ar
    13    11    12    2
    14     1    13    1
    15     1    14    1
    16     1    15    1
    17     3    16    1
    18     4    17    1
    19     8    18    1
