@<TRIPOS>MOLECULE
c1nn2cncc2o1
 11 12 0 0 0
SMALL
GASTEIGER
Energy = 0

@<TRIPOS>ATOM
      1 O           0.7642   -0.6627    0.0000 O.2     1  LIG1       -0.4234
      2 C           1.2492    0.0048    0.0000 C.ar    1  LIG1        0.2031
      3 N           0.7642    0.6722    0.0000 N.ar    1  LIG1       -0.1324
      4 N          -0.0204    0.4173    0.0000 N.ar    1  LIG1       -0.1849
      5 C          -0.8050    0.6722    0.0000 C.ar    1  LIG1        0.1214
      6 N          -1.2899    0.0048    0.0000 N.ar    1  LIG1       -0.2383
      7 C          -0.8050   -0.6627    0.0000 C.ar    1  LIG1        0.0913
      8 C          -0.0204   -0.4077    0.0000 C.ar    1  LIG1        0.2426
      9 H           2.3507    0.0048    0.0000 H       1  LIG1        0.1272
     10 H          -1.1454    1.7198    0.0000 H       1  LIG1        0.1048
     11 H          -1.1454   -1.7103    0.0000 H       1  LIG1        0.0885
@<TRIPOS>BOND
     1     1     2   ar
     2     2     3   ar
     3     3     4   ar
     4     4     5   ar
     5     5     6   ar
     6     6     7   ar
     7     7     8   ar
     8     1     8   ar
     9     4     8   ar
    10     2     9    1
    11     5    10    1
    12     7    11    1
