@<TRIPOS>MOLECULE
Cn1cnn2ccc(=O)nc12
 17 18 0 0 0
SMALL
GASTEIGER
Energy = 0

@<TRIPOS>ATOM
      1 C           1.2998   -1.2337    0.0000 C.3     1  LIG1        0.0161
      2 N           1.0448   -0.4491    0.0000 N.ar    1  LIG1       -0.3025
      3 C           1.5298    0.2184    0.0000 C.ar    1  LIG1        0.1194
      4 N           1.0448    0.8858    0.0000 N.ar    1  LIG1       -0.1542
      5 N           0.2602    0.6309    0.0000 N.ar    1  LIG1       -0.2054
      6 C          -0.4543    1.0434    0.0000 C.ar    1  LIG1        0.0381
      7 C          -1.1687    0.6309    0.0000 C.ar    1  LIG1        0.0230
      8 C          -1.1687   -0.1941    0.0000 C.ar    1  LIG1        0.2747
      9 O          -1.8832   -0.6066    0.0000 O.2     1  LIG1       -0.2657
     10 N          -0.4543   -0.6066    0.0000 N.ar    1  LIG1       -0.1731
     11 C           0.2602   -0.1941    0.0000 C.ar    1  LIG1        0.2358
     12 H           2.4394   -1.2635    0.0000 H       1  LIG1        0.0457
     13 H           0.8907   -1.7817   -0.9121 H       1  LIG1        0.0457
     14 H           0.9113   -1.7540    0.9370 H       1  LIG1        0.0457
     15 H           2.6313    0.2184    0.0000 H       1  LIG1        0.1048
     16 H          -0.4543    2.1449    0.0000 H       1  LIG1        0.0833
     17 H          -2.1226    1.1816    0.0000 H       1  LIG1        0.0687
@<TRIPOS>BOND
     1     1     2    1
     2     2     3   ar
     3     3     4   ar
     4     4     5   ar
     5     5     6   ar
     6     6     7   ar
     7     7     8   ar
     8     8     9    2
     9     8    10   ar
    10    10    11   ar
    11     2    11   ar
    12     5    11   ar
    13     1    12    1
    14     1    13    1
    15     1    14    1
    16     3    15    1
    17     6    16    1
    18     7    17    1
