@<TRIPOS>MOLECULE
Cn1cnc2cnccc12
 17 18 0 0 0
SMALL
GASTEIGER
Energy = 0

@<TRIPOS>ATOM
      1 C           1.0762   -1.3203    0.0000 C.3     1  LIG1        0.0133
      2 N           0.8213   -0.5357    0.0000 N.ar    1  LIG1       -0.3331
      3 C           1.3062    0.1318    0.0000 C.ar    1  LIG1        0.0969
      4 N           0.8213    0.7992    0.0000 N.ar    1  LIG1       -0.2342
      5 C           0.0367    0.5443    0.0000 C.ar    1  LIG1        0.1070
      6 C          -0.6778    0.9568    0.0000 C.ar    1  LIG1        0.0550
      7 N          -1.3923    0.5443    0.0000 N.ar    1  LIG1       -0.2610
      8 C          -1.3923   -0.2807    0.0000 C.ar    1  LIG1        0.0296
      9 C          -0.6778   -0.6932    0.0000 C.ar    1  LIG1       -0.0179
     10 C           0.0367   -0.2807    0.0000 C.ar    1  LIG1        0.0713
     11 H           2.2158   -1.3502    0.0000 H       1  LIG1        0.0456
     12 H           0.6670   -1.8682   -0.9121 H       1  LIG1        0.0456
     13 H           0.6877   -1.8405    0.9370 H       1  LIG1        0.0456
     14 H           2.4077    0.1318    0.0000 H       1  LIG1        0.1029
     15 H          -0.6778    2.0583    0.0000 H       1  LIG1        0.0852
     16 H          -2.3462   -0.8315    0.0000 H       1  LIG1        0.0830
     17 H          -0.6778   -1.7947    0.0000 H       1  LIG1        0.0654
@<TRIPOS>BOND
     1     1     2    1
     2     2     3   ar
     3     3     4   ar
     4     4     5   ar
     5     5     6   ar
     6     6     7   ar
     7     7     8   ar
     8     8     9   ar
     9     9    10   ar
    10     2    10   ar
    11     5    10   ar
    12     1    11    1
    13     1    12    1
    14     1    13    1
    15     3    14    1
    16     6    15    1
    17     8    16    1
    18     9    17    1
