@<TRIPOS>MOLECULE
O=c1cc2ncncn2[nH]1
 14 15 0 0 0
SMALL
GASTEIGER
Energy = 0

@<TRIPOS>ATOM
      1 O           1.9930   -0.0101    0.0000 O.2     1  LIG1       -0.2664
      2 C           1.1680   -0.0101    0.0000 C.ar    1  LIG1        0.2671
      3 N           0.6831    0.6574    0.0000 N.ar    1  LIG1       -0.2564
      4 N          -0.1015    0.4024    0.0000 N.ar    1  LIG1       -0.2231
      5 C          -0.8160    0.8149    0.0000 C.ar    1  LIG1        0.1194
      6 N          -1.5305    0.4024    0.0000 N.ar    1  LIG1       -0.2241
      7 C          -1.5305   -0.4226    0.0000 C.ar    1  LIG1        0.1200
      8 N          -0.8160   -0.8351    0.0000 N.ar    1  LIG1       -0.2164
      9 C          -0.1015   -0.4226    0.0000 C.ar    1  LIG1        0.1605
     10 C           0.6831   -0.6775    0.0000 C.ar    1  LIG1        0.0483
     11 H           1.0176    1.6869    0.0000 H       1  LIG1        0.1906
     12 H          -0.8160    1.9164    0.0000 H       1  LIG1        0.1048
     13 H          -2.4844   -0.9734    0.0000 H       1  LIG1        0.1048
     14 H           1.0235   -1.7251    0.0000 H       1  LIG1        0.0709
@<TRIPOS>BOND
     1     1     2    2
     2     2     3   ar
     3     3     4   ar
     4     4     5   ar
     5     5     6   ar
     6     6     7   ar
     7     7     8   ar
     8     8     9   ar
     9     4     9   ar
    10     9    10   ar
    11     2    10   ar
    12     3    11    1
    13     5    12    1
    14     7    13    1
    15    10    14    1
