@<TRIPOS>MOLECULE
Cn1cnn2ccnc12
 15 16 0 0 0
SMALL
GASTEIGER
Energy = 0

@<TRIPOS>ATOM
      1 C           0.9185   -1.2974    0.0000 C.3     1  LIG1        0.0160
      2 N           0.6636   -0.5128    0.0000 N.ar    1  LIG1       -0.3026
      3 C           1.1485    0.1546    0.0000 C.ar    1  LIG1        0.1194
      4 N           0.6636    0.8221    0.0000 N.ar    1  LIG1       -0.1541
      5 N          -0.1211    0.5671    0.0000 N.ar    1  LIG1       -0.2042
      6 C          -0.9057    0.8221    0.0000 C.ar    1  LIG1        0.0510
      7 C          -1.3906    0.1546    0.0000 C.ar    1  LIG1        0.0496
      8 N          -0.9057   -0.5128    0.0000 N.ar    1  LIG1       -0.2190
      9 C          -0.1211   -0.2579    0.0000 C.ar    1  LIG1        0.2327
     10 H           2.0581   -1.3273    0.0000 H       1  LIG1        0.0457
     11 H           0.5093   -1.8453   -0.9121 H       1  LIG1        0.0457
     12 H           0.5300   -1.8176    0.9370 H       1  LIG1        0.0457
     13 H           2.2500    0.1546    0.0000 H       1  LIG1        0.1048
     14 H          -1.2461    1.8697    0.0000 H       1  LIG1        0.0847
     15 H          -2.4921    0.1546    0.0000 H       1  LIG1        0.0846
@<TRIPOS>BOND
     1     1     2    1
     2     2     3   ar
     3     3     4   ar
     4     4     5   ar
     5     5     6   ar
     6     6     7   ar
     7     7     8   ar
     8     8     9   ar
     9     2     9   ar
    10     5     9   ar
    11     1    10    1
    12     1    11    1
    13     1    12    1
    14     3    13    1
    15     6    14    1
    16     7    15    1
