@<TRIPOS>MOLECULE
Cn1cc2cccnc2nc1=O
 19 20 0 0 0
SMALL
GASTEIGER
Energy = 0

@<TRIPOS>ATOM
      1 C           1.7353    0.8624    0.0000 C.3     1  LIG1        0.0162
      2 N           1.0208    0.4499    0.0000 N.ar    1  LIG1       -0.3015
      3 C           0.3064    0.8624    0.0000 C.ar    1  LIG1        0.0197
      4 C          -0.4081    0.4499    0.0000 C.ar    1  LIG1        0.0355
      5 C          -1.1226    0.8624    0.0000 C.ar    1  LIG1       -0.0482
      6 C          -1.8370    0.4499    0.0000 C.ar    1  LIG1       -0.0428
      7 C          -1.8370   -0.3751    0.0000 C.ar    1  LIG1        0.0300
      8 N          -1.1226   -0.7876    0.0000 N.ar    1  LIG1       -0.2355
      9 C          -0.4081   -0.3751    0.0000 C.ar    1  LIG1        0.1665
     10 N           0.3064   -0.7876    0.0000 N.ar    1  LIG1       -0.1732
     11 C           1.0208   -0.3751    0.0000 C.ar    1  LIG1        0.3501
     12 O           1.7353   -0.7876    0.0000 O.2     1  LIG1       -0.2444
     13 H           1.5276    1.9833    0.0000 H       1  LIG1        0.0457
     14 H           2.3563    0.5761   -0.9121 H       1  LIG1        0.0457
     15 H           2.3250    0.5906    0.9370 H       1  LIG1        0.0457
     16 H           0.3064    1.9639    0.0000 H       1  LIG1        0.0817
     17 H          -1.1226    1.9639    0.0000 H       1  LIG1        0.0625
     18 H          -2.7909    1.0006    0.0000 H       1  LIG1        0.0633
     19 H          -2.7909   -0.9258    0.0000 H       1  LIG1        0.0830
@<TRIPOS>BOND
     1     1     2    1
     2     2     3   ar
     3     3     4   ar
     4     4     5   ar
     5     5     6   ar
     6     6     7   ar
     7     7     8   ar
     8     8     9   ar
     9     4     9   ar
    10     9    10   ar
    11    10    11   ar
    12     2    11   ar
    13    11    12    2
    14     1    13    1
    15     1    14    1
    16     1    15    1
    17     3    16    1
    18     5    17    1
    19     6    18    1
    20     7    19    1
