@<TRIPOS>MOLECULE
c1nc2cnccc2[nH]1
 14 15 0 0 0
SMALL
GASTEIGER
Energy = 0

@<TRIPOS>ATOM
      1 N           0.9346   -0.6747    0.0000 N.ar    1  LIG1       -0.3443
      2 C           1.4195   -0.0072    0.0000 C.ar    1  LIG1        0.0945
      3 N           0.9346    0.6602    0.0000 N.ar    1  LIG1       -0.2344
      4 C           0.1500    0.4053    0.0000 C.ar    1  LIG1        0.1068
      5 C          -0.5645    0.8178    0.0000 C.ar    1  LIG1        0.0550
      6 N          -1.2789    0.4053    0.0000 N.ar    1  LIG1       -0.2610
      7 C          -1.2789   -0.4197    0.0000 C.ar    1  LIG1        0.0296
      8 C          -0.5645   -0.8322    0.0000 C.ar    1  LIG1       -0.0181
      9 C           0.1500   -0.4197    0.0000 C.ar    1  LIG1        0.0689
     10 H           1.2691   -1.7042    0.0000 H       1  LIG1        0.1668
     11 H           2.5210   -0.0072    0.0000 H       1  LIG1        0.1027
     12 H          -0.5645    1.9193    0.0000 H       1  LIG1        0.0852
     13 H          -2.2328   -0.9704    0.0000 H       1  LIG1        0.0830
     14 H          -0.5645   -1.9337    0.0000 H       1  LIG1        0.0654
@<TRIPOS>BOND
     1     1     2   ar
     2     2     3   ar
     3     3     4   ar
     4     4     5   ar
     5     5     6   ar
     6     6     7   ar
     7     7     8   ar
     8     8     9   ar
     9     1     9   ar
    10     4     9   ar
    11     1    10    1
    12     2    11    1
    13     5    12    1
    14     7    13    1
    15     8    14    1
