@<TRIPOS>MOLECULE
O=c1ccnc2cncnn12
 15 16 0 0 0
SMALL
GASTEIGER
Energy = 0

@<TRIPOS>ATOM
      1 O           0.6549   -1.4668    0.0000 O.2     1  LIG1       -0.2657
      2 C           0.6549   -0.6418    0.0000 C.ar    1  LIG1        0.2747
      3 C           1.3694   -0.2293    0.0000 C.ar    1  LIG1        0.0229
      4 C           1.3694    0.5957    0.0000 C.ar    1  LIG1        0.0352
      5 N           0.6549    1.0082    0.0000 N.ar    1  LIG1       -0.2346
      6 C          -0.0595    0.5957    0.0000 C.ar    1  LIG1        0.1761
      7 C          -0.7740    1.0082    0.0000 C.ar    1  LIG1        0.0736
      8 N          -1.4885    0.5957    0.0000 N.ar    1  LIG1       -0.2383
      9 C          -1.4885   -0.2293    0.0000 C.ar    1  LIG1        0.1369
     10 N          -0.7740   -0.6418    0.0000 N.ar    1  LIG1       -0.1504
     11 N          -0.0595   -0.2293    0.0000 N.ar    1  LIG1       -0.1755
     12 H           2.3233   -0.7801    0.0000 H       1  LIG1        0.0687
     13 H           2.3233    1.1465    0.0000 H       1  LIG1        0.0832
     14 H          -0.7740    2.1097    0.0000 H       1  LIG1        0.0868
     15 H          -2.4424   -0.7801    0.0000 H       1  LIG1        0.1065
@<TRIPOS>BOND
     1     1     2    2
     2     2     3   ar
     3     3     4   ar
     4     4     5   ar
     5     5     6   ar
     6     6     7   ar
     7     7     8   ar
     8     8     9   ar
     9     9    10   ar
    10    10    11   ar
    11     2    11   ar
    12     6    11   ar
    13     3    12    1
    14     4    13    1
    15     7    14    1
    16     9    15    1
