@<TRIPOS>MOLECULE
Cn1cc2cnoc2c1
 15 16 0 0 0
SMALL
GASTEIGER
Energy = 0

@<TRIPOS>ATOM
      1 C           1.9048   -0.0229    0.0000 C.3     1  LIG1        0.0115
      2 N           1.0798   -0.0229    0.0000 N.ar    1  LIG1       -0.3523
      3 C           0.5949    0.6445    0.0000 C.ar    1  LIG1        0.0502
      4 C          -0.1898    0.3896    0.0000 C.ar    1  LIG1        0.1846
      5 O          -0.9744    0.6445    0.0000 O.2     1  LIG1       -0.3531
      6 N          -1.4593   -0.0229    0.0000 N.ar    1  LIG1       -0.0854
      7 C          -0.9744   -0.6904    0.0000 C.ar    1  LIG1        0.0792
      8 C          -0.1898   -0.4354    0.0000 C.ar    1  LIG1        0.0586
      9 C           0.5949   -0.6904    0.0000 C.ar    1  LIG1        0.0167
     10 H           2.2853    1.0517    0.0000 H       1  LIG1        0.0455
     11 H           2.2995   -0.5814   -0.9121 H       1  LIG1        0.0455
     12 H           2.2795   -0.5531    0.9370 H       1  LIG1        0.0455
     13 H           0.9353    1.6921    0.0000 H       1  LIG1        0.0847
     14 H          -1.3148   -1.7380    0.0000 H       1  LIG1        0.0870
     15 H           0.9353   -1.7380    0.0000 H       1  LIG1        0.0816
@<TRIPOS>BOND
     1     1     2    1
     2     2     3   ar
     3     3     4   ar
     4     4     5   ar
     5     5     6   ar
     6     6     7   ar
     7     7     8   ar
     8     4     8   ar
     9     8     9   ar
    10     2     9   ar
    11     1    10    1
    12     1    11    1
    13     1    12    1
    14     3    13    1
    15     7    14    1
    16     9    15    1
