@<TRIPOS>MOLECULE
c1cc2nc[nH]c2o1
 12 13 0 0 0
SMALL
GASTEIGER
Energy = 0

@<TRIPOS>ATOM
      1 N           0.7846   -0.6419    0.0000 N.ar    1  LIG1       -0.3151
      2 C           1.2695    0.0256    0.0000 C.ar    1  LIG1        0.0967
      3 N           0.7846    0.6930    0.0000 N.ar    1  LIG1       -0.2325
      4 C          -0.0000    0.4381    0.0000 C.ar    1  LIG1        0.1282
      5 C          -0.0000   -0.3869    0.0000 C.ar    1  LIG1        0.2249
      6 O          -0.7846   -0.6419    0.0000 O.2     1  LIG1       -0.4452
      7 C          -1.2696    0.0256    0.0000 C.ar    1  LIG1        0.0965
      8 C          -0.7846    0.6930    0.0000 C.ar    1  LIG1        0.0039
      9 H           1.1191   -1.6714    0.0000 H       1  LIG1        0.1697
     10 H           2.3710    0.0256    0.0000 H       1  LIG1        0.1028
     11 H          -2.3711    0.0256    0.0000 H       1  LIG1        0.1031
     12 H          -1.1249    1.7406    0.0000 H       1  LIG1        0.0671
@<TRIPOS>BOND
     1     1     2   ar
     2     2     3   ar
     3     3     4   ar
     4     4     5   ar
     5     1     5   ar
     6     5     6   ar
     7     6     7   ar
     8     7     8   ar
     9     4     8   ar
    10     1     9    1
    11     2    10    1
    12     7    11    1
    13     8    12    1
