@<TRIPOS>MOLECULE
c1nc2c[nH]cc2o1
 12 13 0 0 0
SMALL
GASTEIGER
Energy = 0

@<TRIPOS>ATOM
      1 N           1.2903   -0.0128    0.0000 N.ar    1  LIG1       -0.3622
      2 C           0.8054    0.6547    0.0000 C.ar    1  LIG1        0.0468
      3 C           0.0208    0.3997    0.0000 C.ar    1  LIG1        0.1722
      4 O          -0.7638    0.6547    0.0000 O.2     1  LIG1       -0.4410
      5 C          -1.2488   -0.0128    0.0000 C.ar    1  LIG1        0.1832
      6 N          -0.7638   -0.6802    0.0000 N.ar    1  LIG1       -0.2146
      7 C           0.0208   -0.4253    0.0000 C.ar    1  LIG1        0.1265
      8 C           0.8054   -0.6802    0.0000 C.ar    1  LIG1        0.0312
      9 H           2.3728   -0.0128    0.0000 H       1  LIG1        0.1649
     10 H           1.1458    1.7023    0.0000 H       1  LIG1        0.0845
     11 H          -2.3503   -0.0128    0.0000 H       1  LIG1        0.1255
     12 H           1.1458   -1.7278    0.0000 H       1  LIG1        0.0830
@<TRIPOS>BOND
     1     1     2   ar
     2     2     3   ar
     3     3     4   ar
     4     4     5   ar
     5     5     6   ar
     6     6     7   ar
     7     3     7   ar
     8     7     8   ar
     9     1     8   ar
    10     1     9    1
    11     2    10    1
    12     5    11    1
    13     8    12    1
