@<TRIPOS>MOLECULE
O=c1[nH]ncc2cncn12
 14 15 0 0 0
SMALL
GASTEIGER
Energy = 0

@<TRIPOS>ATOM
      1 O           0.4722   -1.4439    0.0000 O.2     1  LIG1       -0.2446
      2 C           0.4722   -0.6189    0.0000 C.ar    1  LIG1        0.3485
      3 N           1.1867   -0.2064    0.0000 N.ar    1  LIG1       -0.2279
      4 N           1.1867    0.6186    0.0000 N.ar    1  LIG1       -0.1761
      5 C           0.4722    1.0311    0.0000 C.ar    1  LIG1        0.0733
      6 C          -0.2422    0.6186    0.0000 C.ar    1  LIG1        0.0901
      7 C          -1.0268    0.8735    0.0000 C.ar    1  LIG1        0.0548
      8 N          -1.5118    0.2061    0.0000 N.ar    1  LIG1       -0.2429
      9 C          -1.0268   -0.4613    0.0000 C.ar    1  LIG1        0.1047
     10 N          -0.2422   -0.2064    0.0000 N.ar    1  LIG1       -0.2489
     11 H           2.1242   -0.7477    0.0000 H       1  LIG1        0.1936
     12 H           0.4722    2.1326    0.0000 H       1  LIG1        0.0869
     13 H          -1.3671    1.9211    0.0000 H       1  LIG1        0.0852
     14 H          -1.3671   -1.5089    0.0000 H       1  LIG1        0.1033
@<TRIPOS>BOND
     1     1     2    2
     2     2     3   ar
     3     3     4   ar
     4     4     5   ar
     5     5     6   ar
     6     6     7   ar
     7     7     8   ar
     8     8     9   ar
     9     9    10   ar
    10     2    10   ar
    11     6    10   ar
    12     3    11    1
    13     5    12    1
    14     7    13    1
    15     9    14    1
