@<TRIPOS>MOLECULE
Cn1cnc2nscc2c1=O
 16 17 0 0 0
SMALL
GASTEIGER
Energy = 0

@<TRIPOS>ATOM
      1 C           1.9472   -0.6144    0.0000 C.3     1  LIG1        0.0161
      2 N           1.2327   -0.2019    0.0000 N.ar    1  LIG1       -0.3018
      3 C           1.2327    0.6231    0.0000 C.ar    1  LIG1        0.1007
      4 N           0.5182    1.0356    0.0000 N.ar    1  LIG1       -0.2169
      5 C          -0.1962    0.6231    0.0000 C.ar    1  LIG1        0.1751
      6 N          -0.9808    0.8781    0.0000 N.ar    1  LIG1       -0.1904
      7 S          -1.4658    0.2106    0.0000 S.2     1  LIG1        0.0064
      8 C          -0.9808   -0.4568    0.0000 C.ar    1  LIG1        0.0103
      9 C          -0.1962   -0.2019    0.0000 C.ar    1  LIG1        0.0921
     10 C           0.5182   -0.6144    0.0000 C.ar    1  LIG1        0.2635
     11 O           0.5182   -1.4394    0.0000 O.2     1  LIG1       -0.2669
     12 H           2.8140    0.1260    0.0000 H       1  LIG1        0.0457
     13 H           2.0098   -1.2954   -0.9121 H       1  LIG1        0.0457
     14 H           2.0066   -1.2610    0.9370 H       1  LIG1        0.0457
     15 H           2.1866    1.1739    0.0000 H       1  LIG1        0.1030
     16 H          -1.3211   -1.5044    0.0000 H       1  LIG1        0.0717
@<TRIPOS>BOND
     1     1     2    1
     2     2     3   ar
     3     3     4   ar
     4     4     5   ar
     5     5     6   ar
     6     6     7   ar
     7     7     8   ar
     8     8     9   ar
     9     5     9   ar
    10     9    10   ar
    11     2    10   ar
    12    10    11    2
    13     1    12    1
    14     1    13    1
    15     1    14    1
    16     3    15    1
    17     8    16    1
