@<TRIPOS>MOLECULE
c1nncnn1
 8 8 0 0 0
SMALL
GASTEIGER
Energy = 0

@<TRIPOS>ATOM
      1 C          -0.0000   -0.8250    0.0000 C.ar    1  LIG1        0.1605
      2 N           0.7145   -0.4125    0.0000 N.ar    1  LIG1       -0.1345
      3 N           0.7145    0.4125    0.0000 N.ar    1  LIG1       -0.1345
      4 C           0.0000    0.8250    0.0000 C.ar    1  LIG1        0.1605
      5 N          -0.7145    0.4125    0.0000 N.ar    1  LIG1       -0.1345
      6 N          -0.7145   -0.4125    0.0000 N.ar    1  LIG1       -0.1345
      7 H           0.0000   -1.9265    0.0000 H       1  LIG1        0.1085
      8 H           0.0000    1.9265    0.0000 H       1  LIG1        0.1085
@<TRIPOS>BOND
     1     1     2   ar
     2     2     3   ar
     3     3     4   ar
     4     4     5   ar
     5     5     6   ar
     6     1     6   ar
     7     1     7    1
     8     4     8    1
