@<TRIPOS>MOLECULE
Cn1cc2cncnc2c1
 17 18 0 0 0
SMALL
GASTEIGER
Energy = 0

@<TRIPOS>ATOM
      1 C           2.0468    0.0065    0.0000 C.3     1  LIG1        0.0114
      2 N           1.2218    0.0065    0.0000 N.ar    1  LIG1       -0.3536
      3 C           0.7369    0.6740    0.0000 C.ar    1  LIG1        0.0150
      4 C          -0.0477    0.4190    0.0000 C.ar    1  LIG1        0.0360
      5 C          -0.7622    0.8315    0.0000 C.ar    1  LIG1        0.0399
      6 N          -1.4767    0.4190    0.0000 N.ar    1  LIG1       -0.2430
      7 C          -1.4767   -0.4060    0.0000 C.ar    1  LIG1        0.1166
      8 N          -0.7622   -0.8185    0.0000 N.ar    1  LIG1       -0.2339
      9 C          -0.0477   -0.4060    0.0000 C.ar    1  LIG1        0.0916
     10 C           0.7369   -0.6609    0.0000 C.ar    1  LIG1        0.0304
     11 H           2.4273    1.0811    0.0000 H       1  LIG1        0.0455
     12 H           2.4415   -0.5520   -0.9121 H       1  LIG1        0.0455
     13 H           2.4215   -0.5237    0.9370 H       1  LIG1        0.0455
     14 H           1.0773    1.7216    0.0000 H       1  LIG1        0.0816
     15 H          -0.7622    1.9330    0.0000 H       1  LIG1        0.0837
     16 H          -2.4306   -0.9568    0.0000 H       1  LIG1        0.1047
     17 H           1.0773   -1.7085    0.0000 H       1  LIG1        0.0830
@<TRIPOS>BOND
     1     1     2    1
     2     2     3   ar
     3     3     4   ar
     4     4     5   ar
     5     5     6   ar
     6     6     7   ar
     7     7     8   ar
     8     8     9   ar
     9     4     9   ar
    10     9    10   ar
    11     2    10   ar
    12     1    11    1
    13     1    12    1
    14     1    13    1
    15     3    14    1
    16     5    15    1
    17     7    16    1
    18    10    17    1
