@<TRIPOS>MOLECULE
c1cnc2nncnc2c1
 14 15 0 0 0
SMALL
GASTEIGER
Energy = 0

@<TRIPOS>ATOM
      1 C           1.4623   -0.4318    0.0000 C.ar    1  LIG1       -0.0414
      2 C           1.4623    0.3932    0.0000 C.ar    1  LIG1        0.0301
      3 N           0.7479    0.8057    0.0000 N.ar    1  LIG1       -0.2330
      4 C           0.0334    0.3932    0.0000 C.ar    1  LIG1        0.2003
      5 N          -0.6811    0.8057    0.0000 N.ar    1  LIG1       -0.1261
      6 N          -1.3955    0.3932    0.0000 N.ar    1  LIG1       -0.1357
      7 C          -1.3955   -0.4318    0.0000 C.ar    1  LIG1        0.1390
      8 N          -0.6811   -0.8443    0.0000 N.ar    1  LIG1       -0.2304
      9 C           0.0334   -0.4318    0.0000 C.ar    1  LIG1        0.1114
     10 C           0.7479   -0.8443    0.0000 C.ar    1  LIG1       -0.0311
     11 H           2.4162   -0.9825    0.0000 H       1  LIG1        0.0633
     12 H           2.4162    0.9439    0.0000 H       1  LIG1        0.0830
     13 H          -2.3494   -0.9825    0.0000 H       1  LIG1        0.1066
     14 H           0.7479   -1.9458    0.0000 H       1  LIG1        0.0640
@<TRIPOS>BOND
     1     1     2   ar
     2     2     3   ar
     3     3     4   ar
     4     4     5   ar
     5     5     6   ar
     6     6     7   ar
     7     7     8   ar
     8     8     9   ar
     9     4     9   ar
    10     9    10   ar
    11     1    10   ar
    12     1    11    1
    13     2    12    1
    14     7    13    1
    15    10    14    1
