@<TRIPOS>MOLECULE
Cn1nnc2ccnn2c1=O
 16 17 0 0 0
SMALL
GASTEIGER
Energy = 0

@<TRIPOS>ATOM
      1 C           1.7318   -0.5730    0.0000 C.3     1  LIG1        0.0370
      2 N           1.0173   -0.1605    0.0000 N.ar    1  LIG1       -0.1976
      3 N           1.0173    0.6645    0.0000 N.ar    1  LIG1       -0.0597
      4 N           0.3029    1.0770    0.0000 N.ar    1  LIG1       -0.1111
      5 C          -0.4116    0.6645    0.0000 C.ar    1  LIG1        0.1842
      6 C          -1.1962    0.9195    0.0000 C.ar    1  LIG1        0.0043
      7 C          -1.6812    0.2520    0.0000 C.ar    1  LIG1        0.0521
      8 N          -1.1962   -0.4154    0.0000 N.ar    1  LIG1       -0.1690
      9 N          -0.4116   -0.1605    0.0000 N.ar    1  LIG1       -0.1604
     10 C           0.3029   -0.5730    0.0000 C.ar    1  LIG1        0.3686
     11 O           0.3029   -1.3980    0.0000 O.2     1  LIG1       -0.2428
     12 H           2.5986    0.1674    0.0000 H       1  LIG1        0.0475
     13 H           1.7944   -1.2540   -0.9121 H       1  LIG1        0.0475
     14 H           1.7912   -1.2196    0.9370 H       1  LIG1        0.0475
     15 H          -1.5365    1.9671    0.0000 H       1  LIG1        0.0671
     16 H          -2.7827    0.2520    0.0000 H       1  LIG1        0.0849
@<TRIPOS>BOND
     1     1     2    1
     2     2     3   ar
     3     3     4   ar
     4     4     5   ar
     5     5     6   ar
     6     6     7   ar
     7     7     8   ar
     8     8     9   ar
     9     5     9   ar
    10     9    10   ar
    11     2    10   ar
    12    10    11    2
    13     1    12    1
    14     1    13    1
    15     1    14    1
    16     6    15    1
    17     7    16    1
