@<TRIPOS>MOLECULE
O=c1cc[nH]c2c(=O)[nH]ncc12
 17 18 0 0 0
SMALL
GASTEIGER
Energy = 0

@<TRIPOS>ATOM
      1 O           0.6874   -1.6396    0.0000 O.2     1  LIG1       -0.2642
      2 C           0.6874   -0.8146    0.0000 C.ar    1  LIG1        0.2888
      3 N           1.4019   -0.4021    0.0000 N.ar    1  LIG1       -0.2415
      4 N           1.4019    0.4229    0.0000 N.ar    1  LIG1       -0.1785
      5 C           0.6874    0.8354    0.0000 C.ar    1  LIG1        0.0608
      6 C          -0.0271    0.4229    0.0000 C.ar    1  LIG1        0.0700
      7 C          -0.0271   -0.4021    0.0000 C.ar    1  LIG1        0.1182
      8 N          -0.7415   -0.8146    0.0000 N.ar    1  LIG1       -0.3562
      9 C          -1.4560   -0.4021    0.0000 C.ar    1  LIG1        0.0059
     10 C          -1.4560    0.4229    0.0000 C.ar    1  LIG1        0.0017
     11 C          -0.7415    0.8354    0.0000 C.ar    1  LIG1        0.1911
     12 O          -0.7415    1.6604    0.0000 O.2     1  LIG1       -0.2871
     13 H           2.3394   -0.9434    0.0000 H       1  LIG1        0.1922
     14 H           0.6874    1.9369    0.0000 H       1  LIG1        0.0855
     15 H          -0.7415   -1.8971    0.0000 H       1  LIG1        0.1655
     16 H          -2.4099   -0.9529    0.0000 H       1  LIG1        0.0808
     17 H          -2.4099    0.9737    0.0000 H       1  LIG1        0.0670
@<TRIPOS>BOND
     1     1     2    2
     2     2     3   ar
     3     3     4   ar
     4     4     5   ar
     5     5     6   ar
     6     6     7   ar
     7     2     7   ar
     8     7     8   ar
     9     8     9   ar
    10     9    10   ar
    11    10    11   ar
    12     6    11   ar
    13    11    12    2
    14     3    13    1
    15     5    14    1
    16     8    15    1
    17     9    16    1
    18    10    17    1
