@<TRIPOS>MOLECULE
O=c1cnc2c[nH]ccn12
 15 16 0 0 0
SMALL
GASTEIGER
Energy = 0

@<TRIPOS>ATOM
      1 O           1.0553   -1.2837    0.0000 O.2     1  LIG1       -0.2656
      2 C           0.8003   -0.4991    0.0000 C.ar    1  LIG1        0.2751
      3 C           1.2853    0.1684    0.0000 C.ar    1  LIG1        0.0948
      4 N           0.8003    0.8358    0.0000 N.ar    1  LIG1       -0.2306
      5 C           0.0157    0.5809    0.0000 C.ar    1  LIG1        0.1565
      6 C          -0.6987    0.9934    0.0000 C.ar    1  LIG1        0.0451
      7 N          -1.4132    0.5809    0.0000 N.ar    1  LIG1       -0.3629
      8 C          -1.4132   -0.2441    0.0000 C.ar    1  LIG1        0.0185
      9 C          -0.6987   -0.6566    0.0000 C.ar    1  LIG1        0.0306
     10 N           0.0157   -0.2441    0.0000 N.ar    1  LIG1       -0.2645
     11 H           2.3868    0.1684    0.0000 H       1  LIG1        0.0886
     12 H          -0.6987    2.0949    0.0000 H       1  LIG1        0.0844
     13 H          -2.3507    1.1222    0.0000 H       1  LIG1        0.1649
     14 H          -2.3671   -0.7949    0.0000 H       1  LIG1        0.0822
     15 H          -0.6987   -1.7581    0.0000 H       1  LIG1        0.0829
@<TRIPOS>BOND
     1     1     2    2
     2     2     3   ar
     3     3     4   ar
     4     4     5   ar
     5     5     6   ar
     6     6     7   ar
     7     7     8   ar
     8     8     9   ar
     9     9    10   ar
    10     2    10   ar
    11     5    10   ar
    12     3    11    1
    13     6    12    1
    14     7    13    1
    15     8    14    1
    16     9    15    1
