@<TRIPOS>MOLECULE
Cn1cnc(=O)c2scnc12
 16 17 0 0 0
SMALL
GASTEIGER
Energy = 0

@<TRIPOS>ATOM
      1 C          -0.5641   -1.7598    0.0000 C.3     1  LIG1        0.0146
      2 N          -0.5641   -0.9348    0.0000 N.ar    1  LIG1       -0.3187
      3 C          -1.2786   -0.5223    0.0000 C.ar    1  LIG1        0.1011
      4 N          -1.2786    0.3027    0.0000 N.ar    1  LIG1       -0.1983
      5 C          -0.5641    0.7152    0.0000 C.ar    1  LIG1        0.2889
      6 O          -0.5641    1.5402    0.0000 O.2     1  LIG1       -0.2645
      7 C           0.1504    0.3027    0.0000 C.ar    1  LIG1        0.1222
      8 C           0.1504   -0.5223    0.0000 C.ar    1  LIG1        0.1541
      9 N           0.9350   -0.7773    0.0000 N.ar    1  LIG1       -0.2295
     10 C           1.4199   -0.1098    0.0000 C.ar    1  LIG1        0.0678
     11 S           0.9350    0.5576    0.0000 S.2     1  LIG1       -0.0685
     12 H          -1.6387   -2.1403    0.0000 H       1  LIG1        0.0457
     13 H          -0.0056   -2.1545    0.9121 H       1  LIG1        0.0457
     14 H          -0.0339   -2.1345   -0.9370 H       1  LIG1        0.0457
     15 H          -2.2325   -1.0731    0.0000 H       1  LIG1        0.1030
     16 H           2.5214   -0.1098    0.0000 H       1  LIG1        0.0908
@<TRIPOS>BOND
     1     1     2    1
     2     2     3   ar
     3     3     4   ar
     4     4     5   ar
     5     5     6    2
     6     5     7   ar
     7     7     8   ar
     8     2     8   ar
     9     8     9   ar
    10     9    10   ar
    11    10    11   ar
    12     7    11   ar
    13     1    12    1
    14     1    13    1
    15     1    14    1
    16     3    15    1
    17    10    16    1
