@<TRIPOS>MOLECULE
Cn1c(=O)ncc2ncnnc12
 17 18 0 0 0
SMALL
GASTEIGER
Energy = 0

@<TRIPOS>ATOM
      1 C           0.4523   -1.4307    0.0000 C.3     1  LIG1        0.0182
      2 N           0.4523   -0.6057    0.0000 N.ar    1  LIG1       -0.2769
      3 C           1.1668   -0.1932    0.0000 C.ar    1  LIG1        0.3498
      4 O           1.8812   -0.6057    0.0000 O.2     1  LIG1       -0.2445
      5 N           1.1668    0.6318    0.0000 N.ar    1  LIG1       -0.1991
      6 C           0.4523    1.0443    0.0000 C.ar    1  LIG1        0.0620
      7 C          -0.2622    0.6318    0.0000 C.ar    1  LIG1        0.1280
      8 N          -0.9766    1.0443    0.0000 N.ar    1  LIG1       -0.2290
      9 C          -1.6911    0.6318    0.0000 C.ar    1  LIG1        0.1391
     10 N          -1.6911   -0.1932    0.0000 N.ar    1  LIG1       -0.1358
     11 N          -0.9766   -0.6057    0.0000 N.ar    1  LIG1       -0.1276
     12 C          -0.2622   -0.1932    0.0000 C.ar    1  LIG1        0.1865
     13 H           1.5269   -1.8112    0.0000 H       1  LIG1        0.0458
     14 H          -0.1062   -1.8254   -0.9121 H       1  LIG1        0.0458
     15 H          -0.0779   -1.8054    0.9370 H       1  LIG1        0.0458
     16 H           0.4523    2.1458    0.0000 H       1  LIG1        0.0854
     17 H          -2.6450    1.1826    0.0000 H       1  LIG1        0.1066
@<TRIPOS>BOND
     1     1     2    1
     2     2     3   ar
     3     3     4    2
     4     3     5   ar
     5     5     6   ar
     6     6     7   ar
     7     7     8   ar
     8     8     9   ar
     9     9    10   ar
    10    10    11   ar
    11    11    12   ar
    12     2    12   ar
    13     7    12   ar
    14     1    13    1
    15     1    14    1
    16     1    15    1
    17     6    16    1
    18     9    17    1
