@<TRIPOS>MOLECULE
O=c1ccn2cn[nH]cc12
 15 16 0 0 0
SMALL
GASTEIGER
Energy = 0

@<TRIPOS>ATOM
      1 O           1.0893   -1.2798    0.0000 O.2     1  LIG1       -0.2856
      2 C           0.8343   -0.4952    0.0000 C.ar    1  LIG1        0.2055
      3 C           1.3192    0.1723    0.0000 C.ar    1  LIG1        0.0037
      4 C           0.8343    0.8397    0.0000 C.ar    1  LIG1        0.0151
      5 N           0.0497    0.5848    0.0000 N.ar    1  LIG1       -0.3012
      6 C          -0.6648    0.9973    0.0000 C.ar    1  LIG1        0.1208
      7 N          -1.3793    0.5848    0.0000 N.ar    1  LIG1       -0.1639
      8 N          -1.3793   -0.2402    0.0000 N.ar    1  LIG1       -0.2813
      9 C          -0.6648   -0.6527    0.0000 C.ar    1  LIG1        0.0485
     10 C           0.0497   -0.2402    0.0000 C.ar    1  LIG1        0.1119
     11 H           2.4207    0.1723    0.0000 H       1  LIG1        0.0671
     12 H           1.1747    1.8873    0.0000 H       1  LIG1        0.0814
     13 H          -0.6648    2.0988    0.0000 H       1  LIG1        0.1050
     14 H          -2.3168   -0.7815    0.0000 H       1  LIG1        0.1883
     15 H          -0.6648   -1.7542    0.0000 H       1  LIG1        0.0845
@<TRIPOS>BOND
     1     1     2    2
     2     2     3   ar
     3     3     4   ar
     4     4     5   ar
     5     5     6   ar
     6     6     7   ar
     7     7     8   ar
     8     8     9   ar
     9     9    10   ar
    10     2    10   ar
    11     5    10   ar
    12     3    11    1
    13     4    12    1
    14     6    13    1
    15     8    14    1
    16     9    15    1
