@<TRIPOS>MOLECULE
c1nnc2nccnn12
 12 13 0 0 0
SMALL
GASTEIGER
Energy = 0

@<TRIPOS>ATOM
      1 C           1.2922    0.4168    0.0000 C.ar    1  LIG1        0.0666
      2 N           0.5777    0.8293    0.0000 N.ar    1  LIG1       -0.1693
      3 N          -0.1367    0.4168    0.0000 N.ar    1  LIG1       -0.1841
      4 C          -0.9213    0.6717    0.0000 C.ar    1  LIG1        0.1436
      5 N          -1.4063    0.0043    0.0000 N.ar    1  LIG1       -0.1341
      6 N          -0.9213   -0.6631    0.0000 N.ar    1  LIG1       -0.1072
      7 C          -0.1367   -0.4082    0.0000 C.ar    1  LIG1        0.2719
      8 N           0.5777   -0.8207    0.0000 N.ar    1  LIG1       -0.2163
      9 C           1.2922   -0.4082    0.0000 C.ar    1  LIG1        0.0512
     10 H           2.2461    0.9676    0.0000 H       1  LIG1        0.0863
     11 H          -1.2616    1.7193    0.0000 H       1  LIG1        0.1067
     12 H           2.2461   -0.9590    0.0000 H       1  LIG1        0.0847
@<TRIPOS>BOND
     1     1     2   ar
     2     2     3   ar
     3     3     4   ar
     4     4     5   ar
     5     5     6   ar
     6     6     7   ar
     7     3     7   ar
     8     7     8   ar
     9     8     9   ar
    10     1     9   ar
    11     1    10    1
    12     4    11    1
    13     9    12    1
