@<TRIPOS>MOLECULE
Cn1cnc2ncoc2c1=O
 16 17 0 0 0
SMALL
GASTEIGER
Energy = 0

@<TRIPOS>ATOM
      1 C          -1.7727   -0.5730    0.0000 C.3     1  LIG1        0.0162
      2 N          -1.0583   -0.1605    0.0000 N.ar    1  LIG1       -0.2992
      3 C          -1.0583    0.6645    0.0000 C.ar    1  LIG1        0.1009
      4 N          -0.3438    1.0770    0.0000 N.ar    1  LIG1       -0.2147
      5 C           0.3707    0.6645    0.0000 C.ar    1  LIG1        0.2053
      6 C           0.3707   -0.1605    0.0000 C.ar    1  LIG1        0.2377
      7 O           1.1553   -0.4154    0.0000 O.2     1  LIG1       -0.4353
      8 C           1.6402    0.2520    0.0000 C.ar    1  LIG1        0.1849
      9 N           1.1553    0.9194    0.0000 N.ar    1  LIG1       -0.1963
     10 C          -0.3438   -0.5730    0.0000 C.ar    1  LIG1        0.2984
     11 O          -0.3438   -1.3980    0.0000 O.2     1  LIG1       -0.2635
     12 H          -2.6396    0.1673    0.0000 H       1  LIG1        0.0457
     13 H          -1.8352   -1.2540    0.9121 H       1  LIG1        0.0457
     14 H          -1.8321   -1.2196   -0.9370 H       1  LIG1        0.0457
     15 H          -2.0122    1.2153    0.0000 H       1  LIG1        0.1030
     16 H           2.7417    0.2520    0.0000 H       1  LIG1        0.1255
@<TRIPOS>BOND
     1     1     2    1
     2     2     3   ar
     3     3     4   ar
     4     4     5   ar
     5     5     6   ar
     6     6     7   ar
     7     7     8   ar
     8     8     9   ar
     9     5     9   ar
    10     6    10   ar
    11     2    10   ar
    12    10    11    2
    13     1    12    1
    14     1    13    1
    15     1    14    1
    16     3    15    1
    17     8    16    1
