@<TRIPOS>MOLECULE
Cn1ccc(=O)c2occc12
 18 19 0 0 0
SMALL
GASTEIGER
Energy = 0

@<TRIPOS>ATOM
      1 C          -0.4632   -1.7035    0.0000 C.3     1  LIG1        0.0120
      2 N          -0.4632   -0.8785    0.0000 N.ar    1  LIG1       -0.3470
      3 C          -1.1777   -0.4660    0.0000 C.ar    1  LIG1        0.0086
      4 C          -1.1777    0.3590    0.0000 C.ar    1  LIG1        0.0050
      5 C          -0.4632    0.7715    0.0000 C.ar    1  LIG1        0.2243
      6 O          -0.4632    1.5965    0.0000 O.2     1  LIG1       -0.2839
      7 C           0.2513    0.3590    0.0000 C.ar    1  LIG1        0.1974
      8 C           0.2513   -0.4660    0.0000 C.ar    1  LIG1        0.0911
      9 C           1.0359   -0.7209    0.0000 C.ar    1  LIG1        0.0005
     10 C           1.5208   -0.0535    0.0000 C.ar    1  LIG1        0.0948
     11 O           1.0359    0.6140    0.0000 O.2     1  LIG1       -0.4575
     12 H          -1.5378   -2.0840    0.0000 H       1  LIG1        0.0456
     13 H           0.0953   -2.0982    0.9121 H       1  LIG1        0.0456
     14 H           0.0670   -2.0782   -0.9370 H       1  LIG1        0.0456
     15 H          -2.1316   -1.0168    0.0000 H       1  LIG1        0.0810
     16 H          -2.1316    0.9098    0.0000 H       1  LIG1        0.0671
     17 H           1.3763   -1.7685    0.0000 H       1  LIG1        0.0670
     18 H           2.6223   -0.0535    0.0000 H       1  LIG1        0.1030
@<TRIPOS>BOND
     1     1     2    1
     2     2     3   ar
     3     3     4   ar
     4     4     5   ar
     5     5     6    2
     6     5     7   ar
     7     7     8   ar
     8     2     8   ar
     9     8     9   ar
    10     9    10   ar
    11    10    11   ar
    12     7    11   ar
    13     1    12    1
    14     1    13    1
    15     1    14    1
    16     3    15    1
    17     4    16    1
    18     9    17    1
    19    10    18    1
