@<TRIPOS>MOLECULE
Cn1cnc2c[nH]c(=O)cc12
 18 19 0 0 0
SMALL
GASTEIGER
Energy = 0

@<TRIPOS>ATOM
      1 C           1.3135   -1.2422    0.0000 C.3     1  LIG1        0.0133
      2 N           1.0585   -0.4576    0.0000 N.ar    1  LIG1       -0.3330
      3 C           1.5434    0.2098    0.0000 C.ar    1  LIG1        0.0969
      4 N           1.0585    0.8773    0.0000 N.ar    1  LIG1       -0.2343
      5 C           0.2739    0.6223    0.0000 C.ar    1  LIG1        0.1051
      6 C          -0.4406    1.0348    0.0000 C.ar    1  LIG1        0.0324
      7 N          -1.1550    0.6223    0.0000 N.ar    1  LIG1       -0.3269
      8 C          -1.1550   -0.2027    0.0000 C.ar    1  LIG1        0.2508
      9 O          -1.8695   -0.6152    0.0000 O.2     1  LIG1       -0.2678
     10 C          -0.4406   -0.6152    0.0000 C.ar    1  LIG1        0.0284
     11 C           0.2739   -0.2027    0.0000 C.ar    1  LIG1        0.0749
     12 H           2.4531   -1.2720    0.0000 H       1  LIG1        0.0456
     13 H           0.9044   -1.7902   -0.9121 H       1  LIG1        0.0456
     14 H           0.9250   -1.7625    0.9370 H       1  LIG1        0.0456
     15 H           2.6449    0.2098    0.0000 H       1  LIG1        0.1029
     16 H          -0.4406    2.1363    0.0000 H       1  LIG1        0.0830
     17 H          -2.0925    1.1635    0.0000 H       1  LIG1        0.1684
     18 H          -0.4406   -1.7167    0.0000 H       1  LIG1        0.0693
@<TRIPOS>BOND
     1     1     2    1
     2     2     3   ar
     3     3     4   ar
     4     4     5   ar
     5     5     6   ar
     6     6     7   ar
     7     7     8   ar
     8     8     9    2
     9     8    10   ar
    10    10    11   ar
    11     2    11   ar
    12     5    11   ar
    13     1    12    1
    14     1    13    1
    15     1    14    1
    16     3    15    1
    17     6    16    1
    18     7    17    1
    19    10    18    1
