@<TRIPOS>MOLECULE
O=c1nccc2occn12
 14 15 0 0 0
SMALL
GASTEIGER
Energy = 0

@<TRIPOS>ATOM
      1 O           0.4983   -1.4578    0.0000 O.2     1  LIG1       -0.2440
      2 C           0.4983   -0.6328    0.0000 C.ar    1  LIG1        0.3552
      3 N           1.2128   -0.2203    0.0000 N.ar    1  LIG1       -0.2009
      4 C           1.2128    0.6047    0.0000 C.ar    1  LIG1        0.0380
      5 C           0.4983    1.0172    0.0000 C.ar    1  LIG1        0.0173
      6 C          -0.2161    0.6047    0.0000 C.ar    1  LIG1        0.2102
      7 O          -1.0008    0.8596    0.0000 O.2     1  LIG1       -0.4453
      8 C          -1.4857    0.1922    0.0000 C.ar    1  LIG1        0.1110
      9 C          -1.0008   -0.4753    0.0000 C.ar    1  LIG1        0.0524
     10 N          -0.2161   -0.2203    0.0000 N.ar    1  LIG1       -0.2348
     11 H           2.1667    1.1555    0.0000 H       1  LIG1        0.0833
     12 H           0.4983    2.1187    0.0000 H       1  LIG1        0.0686
     13 H          -2.5872    0.1922    0.0000 H       1  LIG1        0.1045
     14 H          -1.3412   -1.5229    0.0000 H       1  LIG1        0.0846
@<TRIPOS>BOND
     1     1     2    2
     2     2     3   ar
     3     3     4   ar
     4     4     5   ar
     5     5     6   ar
     6     6     7   ar
     7     7     8   ar
     8     8     9   ar
     9     9    10   ar
    10     2    10   ar
    11     6    10   ar
    12     4    11    1
    13     5    12    1
    14     8    13    1
    15     9    14    1
