@<TRIPOS>MOLECULE
O=c1cn[nH]cn1
 10 10 0 0 0
SMALL
GASTEIGER
Energy = 0

@<TRIPOS>ATOM
      1 O          -0.0000   -1.3868    0.0000 O.2     1  LIG1       -0.2641
      2 C          -0.0000   -0.5618    0.0000 C.ar    1  LIG1        0.2914
      3 C           0.7145   -0.1493    0.0000 C.ar    1  LIG1        0.1139
      4 N           0.7145    0.6757    0.0000 N.ar    1  LIG1       -0.1756
      5 N           0.0000    1.0882    0.0000 N.ar    1  LIG1       -0.2667
      6 C          -0.7145    0.6757    0.0000 C.ar    1  LIG1        0.1135
      7 N          -0.7145   -0.1493    0.0000 N.ar    1  LIG1       -0.1969
      8 H           1.6684   -0.7001    0.0000 H       1  LIG1        0.0903
      9 H           0.0000    2.1707    0.0000 H       1  LIG1        0.1899
     10 H          -1.6684    1.2265    0.0000 H       1  LIG1        0.1042
@<TRIPOS>BOND
     1     1     2    2
     2     2     3   ar
     3     3     4   ar
     4     4     5   ar
     5     5     6   ar
     6     6     7   ar
     7     2     7   ar
     8     3     8    1
     9     5     9    1
    10     6    10    1
