@<TRIPOS>MOLECULE
Cn1c(=O)nc2nc[nH]cc12
 17 18 0 0 0
SMALL
GASTEIGER
Energy = 0

@<TRIPOS>ATOM
      1 C           0.8490   -1.3367    0.0000 C.3     1  LIG1        0.0169
      2 N           0.5941   -0.5521    0.0000 N.ar    1  LIG1       -0.2910
      3 C           1.0790    0.1153    0.0000 C.ar    1  LIG1        0.3507
      4 O           1.9040    0.1153    0.0000 O.2     1  LIG1       -0.2444
      5 N           0.5941    0.7828    0.0000 N.ar    1  LIG1       -0.1716
      6 C          -0.1906    0.5278    0.0000 C.ar    1  LIG1        0.1845
      7 N          -0.9050    0.9403    0.0000 N.ar    1  LIG1       -0.2164
      8 C          -1.6195    0.5278    0.0000 C.ar    1  LIG1        0.0958
      9 N          -1.6195   -0.2972    0.0000 N.ar    1  LIG1       -0.3502
     10 C          -0.9050   -0.7097    0.0000 C.ar    1  LIG1        0.0303
     11 C          -0.1906   -0.2972    0.0000 C.ar    1  LIG1        0.1065
     12 H           1.9886   -1.3666    0.0000 H       1  LIG1        0.0457
     13 H           0.4398   -1.8846   -0.9121 H       1  LIG1        0.0457
     14 H           0.4605   -1.8569    0.9370 H       1  LIG1        0.0457
     15 H          -2.5734    1.0786    0.0000 H       1  LIG1        0.1027
     16 H          -2.5570   -0.8385    0.0000 H       1  LIG1        0.1662
     17 H          -0.9050   -1.8112    0.0000 H       1  LIG1        0.0829
@<TRIPOS>BOND
     1     1     2    1
     2     2     3   ar
     3     3     4    2
     4     3     5   ar
     5     5     6   ar
     6     6     7   ar
     7     7     8   ar
     8     8     9   ar
     9     9    10   ar
    10    10    11   ar
    11     2    11   ar
    12     6    11   ar
    13     1    12    1
    14     1    13    1
    15     1    14    1
    16     8    15    1
    17     9    16    1
    18    10    17    1
