@<TRIPOS>MOLECULE
Cn1c(=O)[nH]c2ncccc12
 18 19 0 0 0
SMALL
GASTEIGER
Energy = 0

@<TRIPOS>ATOM
      1 C           0.8262   -1.3409    0.0000 C.3     1  LIG1        0.0168
      2 N           0.5713   -0.5563    0.0000 N.ar    1  LIG1       -0.2938
      3 C           1.0562    0.1111    0.0000 C.ar    1  LIG1        0.3285
      4 O           1.8812    0.1111    0.0000 O.2     1  LIG1       -0.2465
      5 N           0.5713    0.7786    0.0000 N.ar    1  LIG1       -0.2908
      6 C          -0.2133    0.5236    0.0000 C.ar    1  LIG1        0.1585
      7 N          -0.9278    0.9361    0.0000 N.ar    1  LIG1       -0.2359
      8 C          -1.6423    0.5236    0.0000 C.ar    1  LIG1        0.0300
      9 C          -1.6423   -0.3014    0.0000 C.ar    1  LIG1       -0.0415
     10 C          -0.9278   -0.7139    0.0000 C.ar    1  LIG1       -0.0331
     11 C          -0.2133   -0.3014    0.0000 C.ar    1  LIG1        0.0884
     12 H           1.9658   -1.3708    0.0000 H       1  LIG1        0.0457
     13 H           0.4170   -1.8888   -0.9121 H       1  LIG1        0.0457
     14 H           0.4377   -1.8611    0.9370 H       1  LIG1        0.0457
     15 H           0.9058    1.8081    0.0000 H       1  LIG1        0.1719
     16 H          -2.5962    1.0744    0.0000 H       1  LIG1        0.0830
     17 H          -2.5962   -0.8522    0.0000 H       1  LIG1        0.0633
     18 H          -0.9278   -1.8154    0.0000 H       1  LIG1        0.0640
@<TRIPOS>BOND
     1     1     2    1
     2     2     3   ar
     3     3     4    2
     4     3     5   ar
     5     5     6   ar
     6     6     7   ar
     7     7     8   ar
     8     8     9   ar
     9     9    10   ar
    10    10    11   ar
    11     2    11   ar
    12     6    11   ar
    13     1    12    1
    14     1    13    1
    15     1    14    1
    16     5    15    1
    17     8    16    1
    18     9    17    1
    19    10    18    1
