@<TRIPOS>MOLECULE
c1nc2ccncn2n1
 13 14 0 0 0
SMALL
GASTEIGER
Energy = 0

@<TRIPOS>ATOM
      1 C           1.2815    0.4267    0.0000 C.ar    1  LIG1        0.0328
      2 C           0.5671    0.8392    0.0000 C.ar    1  LIG1        0.0008
      3 C          -0.1474    0.4267    0.0000 C.ar    1  LIG1        0.1588
      4 N          -0.9320    0.6816    0.0000 N.ar    1  LIG1       -0.2148
      5 C          -1.4170    0.0142    0.0000 C.ar    1  LIG1        0.1391
      6 N          -0.9320   -0.6533    0.0000 N.ar    1  LIG1       -0.1522
      7 N          -0.1474   -0.3983    0.0000 N.ar    1  LIG1       -0.2022
      8 C           0.5671   -0.8108    0.0000 C.ar    1  LIG1        0.1197
      9 N           1.2815   -0.3983    0.0000 N.ar    1  LIG1       -0.2435
     10 H           2.2354    0.9774    0.0000 H       1  LIG1        0.0831
     11 H           0.5671    1.9407    0.0000 H       1  LIG1        0.0670
     12 H          -2.5185    0.0142    0.0000 H       1  LIG1        0.1066
     13 H           0.5671   -1.9123    0.0000 H       1  LIG1        0.1048
@<TRIPOS>BOND
     1     1     2   ar
     2     2     3   ar
     3     3     4   ar
     4     4     5   ar
     5     5     6   ar
     6     6     7   ar
     7     3     7   ar
     8     7     8   ar
     9     8     9   ar
    10     1     9   ar
    11     1    10    1
    12     2    11    1
    13     5    12    1
    14     8    13    1
