@<TRIPOS>MOLECULE
O=c1ccc2nnoc2[nH]1
 13 14 0 0 0
SMALL
GASTEIGER
Energy = 0

@<TRIPOS>ATOM
      1 O          -1.8012    0.7043    0.0000 O.2     1  LIG1       -0.2678
      2 C          -1.0867    0.2918    0.0000 C.ar    1  LIG1        0.2515
      3 N          -0.3723    0.7043    0.0000 N.ar    1  LIG1       -0.2896
      4 C           0.3422    0.2918    0.0000 C.ar    1  LIG1        0.2599
      5 C           0.3422   -0.5332    0.0000 C.ar    1  LIG1        0.1517
      6 C          -0.3723   -0.9457    0.0000 C.ar    1  LIG1       -0.0241
      7 C          -1.0867   -0.5332    0.0000 C.ar    1  LIG1        0.0051
      8 N           1.1268   -0.7881    0.0000 N.ar    1  LIG1       -0.1093
      9 N           1.6118   -0.1207    0.0000 N.ar    1  LIG1        0.0363
     10 O           1.1268    0.5468    0.0000 O.2     1  LIG1       -0.3171
     11 H          -0.3723    1.7868    0.0000 H       1  LIG1        0.1719
     12 H          -0.3723   -2.0472    0.0000 H       1  LIG1        0.0643
     13 H          -2.0406   -1.0839    0.0000 H       1  LIG1        0.0672
@<TRIPOS>BOND
     1     1     2    2
     2     2     3   ar
     3     3     4   ar
     4     4     5   ar
     5     5     6   ar
     6     6     7   ar
     7     2     7   ar
     8     5     8   ar
     9     8     9   ar
    10     9    10   ar
    11     4    10   ar
    12     3    11    1
    13     6    12    1
    14     7    13    1
