@<TRIPOS>MOLECULE
c1nc2c[nH]cnc2n1
 13 14 0 0 0
SMALL
GASTEIGER
Energy = 0

@<TRIPOS>ATOM
      1 N           1.2692   -0.4196    0.0000 N.ar    1  LIG1       -0.3501
      2 C           1.2692    0.4054    0.0000 C.ar    1  LIG1        0.0958
      3 N           0.5548    0.8179    0.0000 N.ar    1  LIG1       -0.2165
      4 C          -0.1597    0.4054    0.0000 C.ar    1  LIG1        0.1826
      5 N          -0.9443    0.6603    0.0000 N.ar    1  LIG1       -0.2145
      6 C          -1.4292   -0.0071    0.0000 C.ar    1  LIG1        0.1192
      7 N          -0.9443   -0.6745    0.0000 N.ar    1  LIG1       -0.2308
      8 C          -0.1597   -0.4196    0.0000 C.ar    1  LIG1        0.1255
      9 C           0.5548   -0.8321    0.0000 C.ar    1  LIG1        0.0321
     10 H           2.2067   -0.9608    0.0000 H       1  LIG1        0.1662
     11 H           2.2231    0.9561    0.0000 H       1  LIG1        0.1027
     12 H          -2.5307   -0.0071    0.0000 H       1  LIG1        0.1048
     13 H           0.5548   -1.9336    0.0000 H       1  LIG1        0.0830
@<TRIPOS>BOND
     1     1     2   ar
     2     2     3   ar
     3     3     4   ar
     4     4     5   ar
     5     5     6   ar
     6     6     7   ar
     7     7     8   ar
     8     4     8   ar
     9     8     9   ar
    10     1     9   ar
    11     1    10    1
    12     2    11    1
    13     6    12    1
    14     9    13    1
