@<TRIPOS>MOLECULE
Cn1c(=O)oc2cncnc12
 16 17 0 0 0
SMALL
GASTEIGER
Energy = 0

@<TRIPOS>ATOM
      1 C           0.8409   -1.3361    0.0000 C.3     1  LIG1        0.0197
      2 N           0.5859   -0.5515    0.0000 N.ar    1  LIG1       -0.2618
      3 C           1.0709    0.1159    0.0000 C.ar    1  LIG1        0.4222
      4 O           1.8959    0.1159    0.0000 O.2     1  LIG1       -0.2226
      5 O           0.5859    0.7834    0.0000 O.2     1  LIG1       -0.4042
      6 C          -0.1987    0.5284    0.0000 C.ar    1  LIG1        0.1938
      7 C          -0.9131    0.9409    0.0000 C.ar    1  LIG1        0.0754
      8 N          -1.6276    0.5284    0.0000 N.ar    1  LIG1       -0.2399
      9 C          -1.6276   -0.2966    0.0000 C.ar    1  LIG1        0.1185
     10 N          -0.9131   -0.7091    0.0000 N.ar    1  LIG1       -0.2145
     11 C          -0.1987   -0.2966    0.0000 C.ar    1  LIG1        0.1844
     12 H           1.9805   -1.3659    0.0000 H       1  LIG1        0.0458
     13 H           0.4318   -1.8841   -0.9121 H       1  LIG1        0.0458
     14 H           0.4524   -1.8564    0.9370 H       1  LIG1        0.0458
     15 H          -0.9131    2.0424    0.0000 H       1  LIG1        0.0869
     16 H          -2.5815   -0.8474    0.0000 H       1  LIG1        0.1047
@<TRIPOS>BOND
     1     1     2    1
     2     2     3   ar
     3     3     4    2
     4     3     5   ar
     5     5     6   ar
     6     6     7   ar
     7     7     8   ar
     8     8     9   ar
     9     9    10   ar
    10    10    11   ar
    11     2    11   ar
    12     6    11   ar
    13     1    12    1
    14     1    13    1
    15     1    14    1
    16     7    15    1
    17     9    16    1
