@<TRIPOS>MOLECULE
Cn1ccc2ncnc2c1
 17 18 0 0 0
SMALL
GASTEIGER
Energy = 0

@<TRIPOS>ATOM
      1 C           1.8035   -0.7399    0.0000 C.3     1  LIG1        0.0114
      2 N           1.0891   -0.3274    0.0000 N.ar    1  LIG1       -0.3542
      3 C           1.0891    0.4976    0.0000 C.ar    1  LIG1        0.0064
      4 C           0.3746    0.9101    0.0000 C.ar    1  LIG1       -0.0180
      5 C          -0.3399    0.4976    0.0000 C.ar    1  LIG1        0.0937
      6 N          -1.1245    0.7526    0.0000 N.ar    1  LIG1       -0.2338
      7 C          -1.6094    0.0851    0.0000 C.ar    1  LIG1        0.1174
      8 N          -1.1245   -0.5823    0.0000 N.ar    1  LIG1       -0.2325
      9 C          -0.3399   -0.3274    0.0000 C.ar    1  LIG1        0.1070
     10 C           0.3746   -0.7399    0.0000 C.ar    1  LIG1        0.0318
     11 H           2.6704    0.0004    0.0000 H       1  LIG1        0.0455
     12 H           1.8660   -1.4209   -0.9121 H       1  LIG1        0.0455
     13 H           1.8629   -1.3865    0.9370 H       1  LIG1        0.0455
     14 H           2.0430    1.0484    0.0000 H       1  LIG1        0.0809
     15 H           0.3746    2.0116    0.0000 H       1  LIG1        0.0654
     16 H          -2.7109    0.0851    0.0000 H       1  LIG1        0.1047
     17 H           0.3746   -1.8414    0.0000 H       1  LIG1        0.0831
@<TRIPOS>BOND
     1     1     2    1
     2     2     3   ar
     3     3     4   ar
     4     4     5   ar
     5     5     6   ar
     6     6     7   ar
     7     7     8   ar
     8     8     9   ar
     9     5     9   ar
    10     9    10   ar
    11     2    10   ar
    12     1    11    1
    13     1    12    1
    14     1    13    1
    15     3    14    1
    16     4    15    1
    17     7    16    1
    18    10    17    1
