@<TRIPOS>MOLECULE
c1cn2nnccc2n1
 13 14 0 0 0
SMALL
GASTEIGER
Energy = 0

@<TRIPOS>ATOM
      1 C           1.4427   -0.0169    0.0000 C.ar    1  LIG1        0.0482
      2 C           0.9578    0.6505    0.0000 C.ar    1  LIG1        0.0511
      3 N           0.1732    0.3956    0.0000 N.ar    1  LIG1       -0.2021
      4 N          -0.5413    0.8081    0.0000 N.ar    1  LIG1       -0.0595
      5 N          -1.2558    0.3956    0.0000 N.ar    1  LIG1       -0.1390
      6 C          -1.2558   -0.4294    0.0000 C.ar    1  LIG1        0.0551
      7 C          -0.5413   -0.8419    0.0000 C.ar    1  LIG1        0.0025
      8 C           0.1732   -0.4294    0.0000 C.ar    1  LIG1        0.1571
      9 N           0.9578   -0.6843    0.0000 N.ar    1  LIG1       -0.2346
     10 H           2.5442   -0.0169    0.0000 H       1  LIG1        0.0846
     11 H           1.2982    1.6981    0.0000 H       1  LIG1        0.0847
     12 H          -2.2097   -0.9802    0.0000 H       1  LIG1        0.0850
     13 H          -0.5413   -1.9434    0.0000 H       1  LIG1        0.0670
@<TRIPOS>BOND
     1     1     2   ar
     2     2     3   ar
     3     3     4   ar
     4     4     5   ar
     5     5     6   ar
     6     6     7   ar
     7     7     8   ar
     8     3     8   ar
     9     8     9   ar
    10     1     9   ar
    11     1    10    1
    12     2    11    1
    13     6    12    1
    14     7    13    1
