@<TRIPOS>MOLECULE
O=c1[nH]ccc2cnncc12
 16 17 0 0 0
SMALL
GASTEIGER
Energy = 0

@<TRIPOS>ATOM
      1 O           0.6541   -1.4584    0.0000 O.2     1  LIG1       -0.2672
      2 C           0.6541   -0.6334    0.0000 C.ar    1  LIG1        0.2580
      3 N           1.3686   -0.2209    0.0000 N.ar    1  LIG1       -0.3285
      4 C           1.3686    0.6041    0.0000 C.ar    1  LIG1        0.0056
      5 C           0.6541    1.0166    0.0000 C.ar    1  LIG1       -0.0362
      6 C          -0.0604    0.6041    0.0000 C.ar    1  LIG1        0.0100
      7 C          -0.7748    1.0166    0.0000 C.ar    1  LIG1        0.0579
      8 N          -1.4893    0.6041    0.0000 N.ar    1  LIG1       -0.1571
      9 N          -1.4893   -0.2209    0.0000 N.ar    1  LIG1       -0.1569
     10 C          -0.7748   -0.6334    0.0000 C.ar    1  LIG1        0.0628
     11 C          -0.0604   -0.2209    0.0000 C.ar    1  LIG1        0.0677
     12 H           2.3061   -0.7622    0.0000 H       1  LIG1        0.1683
     13 H           2.3225    1.1549    0.0000 H       1  LIG1        0.0808
     14 H           0.6541    2.1181    0.0000 H       1  LIG1        0.0639
     15 H          -0.7748    2.1181    0.0000 H       1  LIG1        0.0854
     16 H          -0.7748   -1.7349    0.0000 H       1  LIG1        0.0856
@<TRIPOS>BOND
     1     1     2    2
     2     2     3   ar
     3     3     4   ar
     4     4     5   ar
     5     5     6   ar
     6     6     7   ar
     7     7     8   ar
     8     8     9   ar
     9     9    10   ar
    10    10    11   ar
    11     2    11   ar
    12     6    11   ar
    13     3    12    1
    14     4    13    1
    15     5    14    1
    16     7    15    1
    17    10    16    1
