@<TRIPOS>MOLECULE
O=c1[nH]c2ccnnc2[nH]1
 14 15 0 0 0
SMALL
GASTEIGER
Energy = 0

@<TRIPOS>ATOM
      1 O           1.9812    0.0187    0.0000 O.2     1  LIG1       -0.2467
      2 C           1.1562    0.0187    0.0000 C.ar    1  LIG1        0.3261
      3 N           0.6713    0.6861    0.0000 N.ar    1  LIG1       -0.3047
      4 C          -0.1134    0.4312    0.0000 C.ar    1  LIG1        0.0892
      5 C          -0.8278    0.8437    0.0000 C.ar    1  LIG1       -0.0148
      6 C          -1.5423    0.4312    0.0000 C.ar    1  LIG1        0.0520
      7 N          -1.5423   -0.3938    0.0000 N.ar    1  LIG1       -0.1556
      8 N          -0.8278   -0.8063    0.0000 N.ar    1  LIG1       -0.1294
      9 C          -0.1134   -0.3938    0.0000 C.ar    1  LIG1        0.1806
     10 N           0.6713   -0.6487    0.0000 N.ar    1  LIG1       -0.2896
     11 H           1.0058    1.7156    0.0000 H       1  LIG1        0.1705
     12 H          -0.8278    1.9452    0.0000 H       1  LIG1        0.0655
     13 H          -2.4962    0.9820    0.0000 H       1  LIG1        0.0849
     14 H           1.0058   -1.6782    0.0000 H       1  LIG1        0.1719
@<TRIPOS>BOND
     1     1     2    2
     2     2     3   ar
     3     3     4   ar
     4     4     5   ar
     5     5     6   ar
     6     6     7   ar
     7     7     8   ar
     8     8     9   ar
     9     4     9   ar
    10     9    10   ar
    11     2    10   ar
    12     3    11    1
    13     5    12    1
    14     6    13    1
    15    10    14    1
