@<TRIPOS>MOLECULE
Cn1ncc2[nH]ncc2c1=O
 17 18 0 0 0
SMALL
GASTEIGER
Energy = 0

@<TRIPOS>ATOM
      1 C          -1.7536   -0.5823    0.0000 C.3     1  LIG1        0.0340
      2 N          -1.0391   -0.1698    0.0000 N.ar    1  LIG1       -0.2320
      3 N          -1.0391    0.6552    0.0000 N.ar    1  LIG1       -0.1748
      4 C          -0.3246    1.0677    0.0000 C.ar    1  LIG1        0.0736
      5 C           0.3898    0.6552    0.0000 C.ar    1  LIG1        0.0907
      6 C           0.3898   -0.1698    0.0000 C.ar    1  LIG1        0.0868
      7 C           1.1745   -0.4247    0.0000 C.ar    1  LIG1        0.0622
      8 N           1.6594    0.2427    0.0000 N.ar    1  LIG1       -0.1810
      9 N           1.1745    0.9102    0.0000 N.ar    1  LIG1       -0.2753
     10 C          -0.3246   -0.5823    0.0000 C.ar    1  LIG1        0.2777
     11 O          -0.3246   -1.4073    0.0000 O.2     1  LIG1       -0.2655
     12 H          -2.6204    0.1581    0.0000 H       1  LIG1        0.0474
     13 H          -1.8162   -1.2633    0.9121 H       1  LIG1        0.0474
     14 H          -1.8130   -1.2289   -0.9370 H       1  LIG1        0.0474
     15 H          -0.3246    2.1692    0.0000 H       1  LIG1        0.0869
     16 H           1.5149   -1.4723    0.0000 H       1  LIG1        0.0856
     17 H           1.5090    1.9397    0.0000 H       1  LIG1        0.1890
@<TRIPOS>BOND
     1     1     2    1
     2     2     3   ar
     3     3     4   ar
     4     4     5   ar
     5     5     6   ar
     6     6     7   ar
     7     7     8   ar
     8     8     9   ar
     9     5     9   ar
    10     6    10   ar
    11     2    10   ar
    12    10    11    2
    13     1    12    1
    14     1    13    1
    15     1    14    1
    16     4    15    1
    17     7    16    1
    18     9    17    1
