@<TRIPOS>MOLECULE
O=c1ccc2ncsc2[nH]1
 14 15 0 0 0
SMALL
GASTEIGER
Energy = 0

@<TRIPOS>ATOM
      1 O          -1.9017    0.6434    0.0000 O.2     1  LIG1       -0.2679
      2 C          -1.1872    0.2309    0.0000 C.ar    1  LIG1        0.2496
      3 N          -0.4727    0.6434    0.0000 N.ar    1  LIG1       -0.3154
      4 C           0.2417    0.2309    0.0000 C.ar    1  LIG1        0.1073
      5 C           0.2417   -0.5941    0.0000 C.ar    1  LIG1        0.0948
      6 C          -0.4727   -1.0066    0.0000 C.ar    1  LIG1       -0.0286
      7 C          -1.1872   -0.5941    0.0000 C.ar    1  LIG1        0.0048
      8 N           1.0263   -0.8490    0.0000 N.ar    1  LIG1       -0.2459
      9 C           1.5113   -0.1816    0.0000 C.ar    1  LIG1        0.0673
     10 S           1.0263    0.4859    0.0000 S.2     1  LIG1       -0.0577
     11 H          -0.4727    1.7259    0.0000 H       1  LIG1        0.1694
     12 H          -0.4727   -2.1081    0.0000 H       1  LIG1        0.0641
     13 H          -2.1411   -1.1449    0.0000 H       1  LIG1        0.0672
     14 H           2.6128   -0.1816    0.0000 H       1  LIG1        0.0908
@<TRIPOS>BOND
     1     1     2    2
     2     2     3   ar
     3     3     4   ar
     4     4     5   ar
     5     5     6   ar
     6     6     7   ar
     7     2     7   ar
     8     5     8   ar
     9     8     9   ar
    10     9    10   ar
    11     4    10   ar
    12     3    11    1
    13     6    12    1
    14     7    13    1
    15     9    14    1
