@<TRIPOS>MOLECULE
O=c1cc2[nH]c(=O)ncc2c[nH]1
 17 18 0 0 0
SMALL
GASTEIGER
Energy = 0

@<TRIPOS>ATOM
      1 O           2.1524   -0.6580    0.0000 O.2     1  LIG1       -0.2678
      2 C           1.4380   -0.2455    0.0000 C.ar    1  LIG1        0.2507
      3 N           1.4380    0.5795    0.0000 N.ar    1  LIG1       -0.3284
      4 C           0.7235    0.9920    0.0000 C.ar    1  LIG1        0.0155
      5 C           0.0090    0.5795    0.0000 C.ar    1  LIG1        0.0328
      6 C          -0.7055    0.9920    0.0000 C.ar    1  LIG1        0.0435
      7 N          -1.4199    0.5795    0.0000 N.ar    1  LIG1       -0.2008
      8 C          -1.4199   -0.2455    0.0000 C.ar    1  LIG1        0.3463
      9 O          -2.1344   -0.6580    0.0000 O.2     1  LIG1       -0.2447
     10 N          -0.7055   -0.6580    0.0000 N.ar    1  LIG1       -0.3056
     11 C           0.0090   -0.2455    0.0000 C.ar    1  LIG1        0.0585
     12 C           0.7235   -0.6580    0.0000 C.ar    1  LIG1        0.0268
     13 H           2.3755    1.1208    0.0000 H       1  LIG1        0.1683
     14 H           0.7235    2.0935    0.0000 H       1  LIG1        0.0815
     15 H          -0.7055    2.0935    0.0000 H       1  LIG1        0.0838
     16 H          -0.7055   -1.7405    0.0000 H       1  LIG1        0.1705
     17 H           0.7235   -1.7595    0.0000 H       1  LIG1        0.0692
@<TRIPOS>BOND
     1     1     2    2
     2     2     3   ar
     3     3     4   ar
     4     4     5   ar
     5     5     6   ar
     6     6     7   ar
     7     7     8   ar
     8     8     9    2
     9     8    10   ar
    10    10    11   ar
    11     5    11   ar
    12    11    12   ar
    13     2    12   ar
    14     3    13    1
    15     4    14    1
    16     6    15    1
    17    10    16    1
    18    12    17    1
