@<TRIPOS>MOLECULE
O=c1[nH]cnn2cnnc12
 13 14 0 0 0
SMALL
GASTEIGER
Energy = 0

@<TRIPOS>ATOM
      1 O           0.4982   -1.4554    0.0000 O.2     1  LIG1       -0.2638
      2 C           0.4982   -0.6304    0.0000 C.ar    1  LIG1        0.2961
      3 N           1.2126   -0.2179    0.0000 N.ar    1  LIG1       -0.3090
      4 C           1.2126    0.6071    0.0000 C.ar    1  LIG1        0.1172
      5 N           0.4982    1.0196    0.0000 N.ar    1  LIG1       -0.1539
      6 N          -0.2163    0.6071    0.0000 N.ar    1  LIG1       -0.1942
      7 C          -1.0009    0.8620    0.0000 C.ar    1  LIG1        0.1423
      8 N          -1.4858    0.1946    0.0000 N.ar    1  LIG1       -0.1355
      9 N          -1.0009   -0.4729    0.0000 N.ar    1  LIG1       -0.1226
     10 C          -0.2163   -0.2179    0.0000 C.ar    1  LIG1        0.2421
     11 H           2.1501   -0.7591    0.0000 H       1  LIG1        0.1699
     12 H           2.1665    1.1578    0.0000 H       1  LIG1        0.1046
     13 H          -1.3413    1.9096    0.0000 H       1  LIG1        0.1067
@<TRIPOS>BOND
     1     1     2    2
     2     2     3   ar
     3     3     4   ar
     4     4     5   ar
     5     5     6   ar
     6     6     7   ar
     7     7     8   ar
     8     8     9   ar
     9     9    10   ar
    10     2    10   ar
    11     6    10   ar
    12     3    11    1
    13     4    12    1
    14     7    13    1
