@<TRIPOS>MOLECULE
c1nc2cnncc2[nH]1
 13 14 0 0 0
SMALL
GASTEIGER
Energy = 0

@<TRIPOS>ATOM
      1 N           0.9566   -0.6674    0.0000 N.ar    1  LIG1       -0.3431
      2 C           1.4415    0.0000    0.0000 C.ar    1  LIG1        0.0945
      3 N           0.9566    0.6674    0.0000 N.ar    1  LIG1       -0.2343
      4 C           0.1720    0.4125    0.0000 C.ar    1  LIG1        0.1100
      5 C          -0.5425    0.8250    0.0000 C.ar    1  LIG1        0.0773
      6 N          -1.2570    0.4125    0.0000 N.ar    1  LIG1       -0.1554
      7 N          -1.2570   -0.4125    0.0000 N.ar    1  LIG1       -0.1555
      8 C          -0.5425   -0.8250    0.0000 C.ar    1  LIG1        0.0753
      9 C           0.1720   -0.4125    0.0000 C.ar    1  LIG1        0.0876
     10 H           1.2911   -1.6969    0.0000 H       1  LIG1        0.1668
     11 H           2.5430    0.0000    0.0000 H       1  LIG1        0.1027
     12 H          -0.5425    1.9265    0.0000 H       1  LIG1        0.0870
     13 H          -0.5425   -1.9265    0.0000 H       1  LIG1        0.0870
@<TRIPOS>BOND
     1     1     2   ar
     2     2     3   ar
     3     3     4   ar
     4     4     5   ar
     5     5     6   ar
     6     6     7   ar
     7     7     8   ar
     8     8     9   ar
     9     1     9   ar
    10     4     9   ar
    11     1    10    1
    12     2    11    1
    13     5    12    1
    14     8    13    1
