@<TRIPOS>MOLECULE
Cn1c(=O)ncc2conc12
 16 17 0 0 0
SMALL
GASTEIGER
Energy = 0

@<TRIPOS>ATOM
      1 C           0.3180   -1.4092    0.0000 C.3     1  LIG1        0.0182
      2 N           0.3180   -0.5842    0.0000 N.ar    1  LIG1       -0.2769
      3 C           1.0325   -0.1717    0.0000 C.ar    1  LIG1        0.3498
      4 O           1.7470   -0.5842    0.0000 O.2     1  LIG1       -0.2445
      5 N           1.0325    0.6533    0.0000 N.ar    1  LIG1       -0.2005
      6 C           0.3180    1.0658    0.0000 C.ar    1  LIG1        0.0468
      7 C          -0.3965    0.6533    0.0000 C.ar    1  LIG1        0.0763
      8 C          -1.1811    0.9082    0.0000 C.ar    1  LIG1        0.1349
      9 O          -1.6660    0.2408    0.0000 O.2     1  LIG1       -0.3603
     10 N          -1.1811   -0.4267    0.0000 N.ar    1  LIG1       -0.0598
     11 C          -0.3965   -0.1717    0.0000 C.ar    1  LIG1        0.1882
     12 H           1.3926   -1.7897    0.0000 H       1  LIG1        0.0458
     13 H          -0.2405   -1.8039   -0.9121 H       1  LIG1        0.0458
     14 H          -0.2122   -1.7839    0.9370 H       1  LIG1        0.0458
     15 H           0.3180    2.1673    0.0000 H       1  LIG1        0.0839
     16 H          -1.5215    1.9558    0.0000 H       1  LIG1        0.1065
@<TRIPOS>BOND
     1     1     2    1
     2     2     3   ar
     3     3     4    2
     4     3     5   ar
     5     5     6   ar
     6     6     7   ar
     7     7     8   ar
     8     8     9   ar
     9     9    10   ar
    10    10    11   ar
    11     2    11   ar
    12     7    11   ar
    13     1    12    1
    14     1    13    1
    15     1    14    1
    16     6    15    1
    17     8    16    1
