@<TRIPOS>MOLECULE
Cn1cc2[nH]ccc2cc1=O
 19 20 0 0 0
SMALL
GASTEIGER
Energy = 0

@<TRIPOS>ATOM
      1 C           1.5816    0.8331    0.0000 C.3     1  LIG1        0.0148
      2 N           0.8671    0.4206    0.0000 N.ar    1  LIG1       -0.3163
      3 C           0.1526    0.8331    0.0000 C.ar    1  LIG1        0.0315
      4 C          -0.5619    0.4206    0.0000 C.ar    1  LIG1        0.0631
      5 N          -1.3465    0.6755    0.0000 N.ar    1  LIG1       -0.3595
      6 C          -1.8314    0.0081    0.0000 C.ar    1  LIG1        0.0028
      7 C          -1.3465   -0.6593    0.0000 C.ar    1  LIG1       -0.0364
      8 C          -0.5619   -0.4044    0.0000 C.ar    1  LIG1        0.0062
      9 C           0.1526   -0.8169    0.0000 C.ar    1  LIG1        0.0121
     10 C           0.8671   -0.4044    0.0000 C.ar    1  LIG1        0.2517
     11 O           1.5816   -0.8169    0.0000 O.2     1  LIG1       -0.2677
     12 H           1.3739    1.9540    0.0000 H       1  LIG1        0.0457
     13 H           2.2026    0.5468   -0.9121 H       1  LIG1        0.0457
     14 H           2.1713    0.5613    0.9370 H       1  LIG1        0.0457
     15 H           0.1526    1.9346    0.0000 H       1  LIG1        0.0831
     16 H          -1.6810    1.7050    0.0000 H       1  LIG1        0.1654
     17 H          -2.9329    0.0081    0.0000 H       1  LIG1        0.0807
     18 H          -1.6869   -1.7069    0.0000 H       1  LIG1        0.0638
     19 H           0.1526   -1.9184    0.0000 H       1  LIG1        0.0678
@<TRIPOS>BOND
     1     1     2    1
     2     2     3   ar
     3     3     4   ar
     4     4     5   ar
     5     5     6   ar
     6     6     7   ar
     7     7     8   ar
     8     4     8   ar
     9     8     9   ar
    10     9    10   ar
    11     2    10   ar
    12    10    11    2
    13     1    12    1
    14     1    13    1
    15     1    14    1
    16     3    15    1
    17     5    16    1
    18     6    17    1
    19     7    18    1
    20     9    19    1
