@<TRIPOS>MOLECULE
O=c1ncnc2cccnn12
 15 16 0 0 0
SMALL
GASTEIGER
Energy = 0

@<TRIPOS>ATOM
      1 O           0.6153   -1.4554    0.0000 O.2     1  LIG1       -0.2425
      2 C           0.6153   -0.6304    0.0000 C.ar    1  LIG1        0.3719
      3 N           1.3298   -0.2179    0.0000 N.ar    1  LIG1       -0.1799
      4 C           1.3298    0.6071    0.0000 C.ar    1  LIG1        0.1238
      5 N           0.6153    1.0196    0.0000 N.ar    1  LIG1       -0.2163
      6 C          -0.0991    0.6071    0.0000 C.ar    1  LIG1        0.1610
      7 C          -0.8136    1.0196    0.0000 C.ar    1  LIG1       -0.0157
      8 C          -1.5281    0.6071    0.0000 C.ar    1  LIG1       -0.0384
      9 C          -1.5281   -0.2179    0.0000 C.ar    1  LIG1        0.0487
     10 N          -0.8136   -0.6304    0.0000 N.ar    1  LIG1       -0.1691
     11 N          -0.0991   -0.2179    0.0000 N.ar    1  LIG1       -0.1620
     12 H           2.2837    1.1579    0.0000 H       1  LIG1        0.1049
     13 H          -0.8136    2.1211    0.0000 H       1  LIG1        0.0655
     14 H          -2.4820    1.1579    0.0000 H       1  LIG1        0.0634
     15 H          -2.4820   -0.7687    0.0000 H       1  LIG1        0.0847
@<TRIPOS>BOND
     1     1     2    2
     2     2     3   ar
     3     3     4   ar
     4     4     5   ar
     5     5     6   ar
     6     6     7   ar
     7     7     8   ar
     8     8     9   ar
     9     9    10   ar
    10    10    11   ar
    11     2    11   ar
    12     6    11   ar
    13     4    12    1
    14     7    13    1
    15     8    14    1
    16     9    15    1
