@<TRIPOS>MOLECULE
Cn1ccc(=O)n2cncc12
 18 19 0 0 0
SMALL
GASTEIGER
Energy = 0

@<TRIPOS>ATOM
      1 C           0.4590   -1.6905    0.0000 C.3     1  LIG1        0.0132
      2 N           0.4590   -0.8655    0.0000 N.ar    1  LIG1       -0.3350
      3 C           1.1735   -0.4530    0.0000 C.ar    1  LIG1        0.0113
      4 C           1.1735    0.3720    0.0000 C.ar    1  LIG1        0.0195
      5 C           0.4590    0.7845    0.0000 C.ar    1  LIG1        0.2593
      6 O           0.4590    1.6095    0.0000 O.2     1  LIG1       -0.2672
      7 N          -0.2554    0.3720    0.0000 N.ar    1  LIG1       -0.2514
      8 C          -1.0401    0.6269    0.0000 C.ar    1  LIG1        0.1046
      9 N          -1.5250   -0.0405    0.0000 N.ar    1  LIG1       -0.2414
     10 C          -1.0401   -0.7080    0.0000 C.ar    1  LIG1        0.0704
     11 C          -0.2554   -0.4530    0.0000 C.ar    1  LIG1        0.1401
     12 H           1.5336   -2.0710    0.0000 H       1  LIG1        0.0456
     13 H          -0.0995   -2.0852   -0.9121 H       1  LIG1        0.0456
     14 H          -0.0712   -2.0652    0.9370 H       1  LIG1        0.0456
     15 H           2.1274   -1.0038    0.0000 H       1  LIG1        0.0811
     16 H           2.1274    0.9228    0.0000 H       1  LIG1        0.0686
     17 H          -1.3805    1.6745    0.0000 H       1  LIG1        0.1033
     18 H          -1.3805   -1.7556    0.0000 H       1  LIG1        0.0867
@<TRIPOS>BOND
     1     1     2    1
     2     2     3   ar
     3     3     4   ar
     4     4     5   ar
     5     5     6    2
     6     5     7   ar
     7     7     8   ar
     8     8     9   ar
     9     9    10   ar
    10    10    11   ar
    11     2    11   ar
    12     7    11   ar
    13     1    12    1
    14     1    13    1
    15     1    14    1
    16     3    15    1
    17     4    16    1
    18     8    17    1
    19    10    18    1
