@<TRIPOS>MOLECULE
Cn1ccc2ccc(=O)[nH]c12
 19 20 0 0 0
SMALL
GASTEIGER
Energy = 0

@<TRIPOS>ATOM
      1 C           1.3184   -1.2121    0.0000 C.3     1  LIG1        0.0132
      2 N           1.0634   -0.4275    0.0000 N.ar    1  LIG1       -0.3363
      3 C           1.5483    0.2400    0.0000 C.ar    1  LIG1        0.0067
      4 C           1.0634    0.9074    0.0000 C.ar    1  LIG1       -0.0350
      5 C           0.2788    0.6525    0.0000 C.ar    1  LIG1        0.0172
      6 C           0.2788   -0.1725    0.0000 C.ar    1  LIG1        0.1209
      7 N          -0.4357   -0.5850    0.0000 N.ar    1  LIG1       -0.3083
      8 C          -1.1501   -0.1725    0.0000 C.ar    1  LIG1        0.2502
      9 O          -1.8646   -0.5850    0.0000 O.2     1  LIG1       -0.2679
     10 C          -1.1501    0.6525    0.0000 C.ar    1  LIG1        0.0035
     11 C          -0.4357    1.0650    0.0000 C.ar    1  LIG1       -0.0460
     12 H           2.4580   -1.2419    0.0000 H       1  LIG1        0.0456
     13 H           0.9093   -1.7601   -0.9121 H       1  LIG1        0.0456
     14 H           0.9299   -1.7324    0.9370 H       1  LIG1        0.0456
     15 H           2.6498    0.2400    0.0000 H       1  LIG1        0.0809
     16 H           1.4038    1.9550    0.0000 H       1  LIG1        0.0639
     17 H          -0.4357   -1.6675    0.0000 H       1  LIG1        0.1703
     18 H          -2.1040    1.2032    0.0000 H       1  LIG1        0.0672
     19 H          -0.4357    2.1665    0.0000 H       1  LIG1        0.0626
@<TRIPOS>BOND
     1     1     2    1
     2     2     3   ar
     3     3     4   ar
     4     4     5   ar
     5     5     6   ar
     6     2     6   ar
     7     6     7   ar
     8     7     8   ar
     9     8     9    2
    10     8    10   ar
    11    10    11   ar
    12     5    11   ar
    13     1    12    1
    14     1    13    1
    15     1    14    1
    16     3    15    1
    17     4    16    1
    18     7    17    1
    19    10    18    1
    20    11    19    1
