@<TRIPOS>MOLECULE
c1cc2ncncc2nn1
 14 15 0 0 0
SMALL
GASTEIGER
Energy = 0

@<TRIPOS>ATOM
      1 C           1.4289    0.4254    0.0000 C.ar    1  LIG1        0.0520
      2 C           0.7145    0.8379    0.0000 C.ar    1  LIG1       -0.0142
      3 C          -0.0000    0.4254    0.0000 C.ar    1  LIG1        0.0956
      4 N          -0.7145    0.8379    0.0000 N.ar    1  LIG1       -0.2338
      5 C          -1.4289    0.4254    0.0000 C.ar    1  LIG1        0.1167
      6 N          -1.4289   -0.3996    0.0000 N.ar    1  LIG1       -0.2415
      7 C          -0.7145   -0.8121    0.0000 C.ar    1  LIG1        0.0585
      8 C          -0.0000   -0.3996    0.0000 C.ar    1  LIG1        0.1295
      9 N           0.7145   -0.8121    0.0000 N.ar    1  LIG1       -0.1462
     10 N           1.4289   -0.3996    0.0000 N.ar    1  LIG1       -0.1570
     11 H           2.3828    0.9761    0.0000 H       1  LIG1        0.0848
     12 H           0.7145    1.9394    0.0000 H       1  LIG1        0.0655
     13 H          -2.3828    0.9761    0.0000 H       1  LIG1        0.1047
     14 H          -0.7145   -1.9136    0.0000 H       1  LIG1        0.0853
@<TRIPOS>BOND
     1     1     2   ar
     2     2     3   ar
     3     3     4   ar
     4     4     5   ar
     5     5     6   ar
     6     6     7   ar
     7     7     8   ar
     8     3     8   ar
     9     8     9   ar
    10     9    10   ar
    11     1    10   ar
    12     1    11    1
    13     2    12    1
    14     5    13    1
    15     7    14    1
