@<TRIPOS>MOLECULE
Cn1c(=O)nc2sccn2c1=O
 17 18 0 0 0
SMALL
GASTEIGER
Energy = 0

@<TRIPOS>ATOM
      1 C           1.7089   -0.7704    0.0000 C.3     1  LIG1        0.0210
      2 N           0.9945   -0.3579    0.0000 N.ar    1  LIG1       -0.2473
      3 C           0.9945    0.4671    0.0000 C.ar    1  LIG1        0.3543
      4 O           1.7089    0.8796    0.0000 O.2     1  LIG1       -0.2443
      5 N           0.2800    0.8796    0.0000 N.ar    1  LIG1       -0.1681
      6 C          -0.4345    0.4671    0.0000 C.ar    1  LIG1        0.1861
      7 S          -1.2191    0.7220    0.0000 S.2     1  LIG1       -0.0574
      8 C          -1.7040    0.0546    0.0000 C.ar    1  LIG1       -0.0042
      9 C          -1.2191   -0.6129    0.0000 C.ar    1  LIG1        0.0231
     10 N          -0.4345   -0.3579    0.0000 N.ar    1  LIG1       -0.2469
     11 C           0.2800   -0.7704    0.0000 C.ar    1  LIG1        0.3389
     12 O           0.2800   -1.5954    0.0000 O.2     1  LIG1       -0.2458
     13 H           2.5758   -0.0301    0.0000 H       1  LIG1        0.0459
     14 H           1.7714   -1.4514   -0.9121 H       1  LIG1        0.0459
     15 H           1.7683   -1.4170    0.9370 H       1  LIG1        0.0459
     16 H          -2.8055    0.0546    0.0000 H       1  LIG1        0.0709
     17 H          -1.5595   -1.6605    0.0000 H       1  LIG1        0.0820
@<TRIPOS>BOND
     1     1     2    1
     2     2     3   ar
     3     3     4    2
     4     3     5   ar
     5     5     6   ar
     6     6     7   ar
     7     7     8   ar
     8     8     9   ar
     9     9    10   ar
    10     6    10   ar
    11    10    11   ar
    12     2    11   ar
    13    11    12    2
    14     1    13    1
    15     1    14    1
    16     1    15    1
    17     8    16    1
    18     9    17    1
