@<TRIPOS>MOLECULE
c1n[nH]c2ccnnc12
 13 14 0 0 0
SMALL
GASTEIGER
Energy = 0

@<TRIPOS>ATOM
      1 N           0.9360   -0.6772    0.0000 N.ar    1  LIG1       -0.2753
      2 N           1.4209   -0.0098    0.0000 N.ar    1  LIG1       -0.1795
      3 C           0.9360    0.6576    0.0000 C.ar    1  LIG1        0.0769
      4 C           0.1514    0.4027    0.0000 C.ar    1  LIG1        0.1305
      5 N          -0.5631    0.8152    0.0000 N.ar    1  LIG1       -0.1461
      6 N          -1.2776    0.4027    0.0000 N.ar    1  LIG1       -0.1570
      7 C          -1.2776   -0.4223    0.0000 C.ar    1  LIG1        0.0520
      8 C          -0.5631   -0.8348    0.0000 C.ar    1  LIG1       -0.0149
      9 C           0.1514   -0.4223    0.0000 C.ar    1  LIG1        0.0872
     10 H           1.2705   -1.7067    0.0000 H       1  LIG1        0.1890
     11 H           1.2764    1.7052    0.0000 H       1  LIG1        0.0870
     12 H          -2.2315   -0.9731    0.0000 H       1  LIG1        0.0848
     13 H          -0.5631   -1.9363    0.0000 H       1  LIG1        0.0655
@<TRIPOS>BOND
     1     1     2   ar
     2     2     3   ar
     3     3     4   ar
     4     4     5   ar
     5     5     6   ar
     6     6     7   ar
     7     7     8   ar
     8     8     9   ar
     9     1     9   ar
    10     4     9   ar
    11     1    10    1
    12     3    11    1
    13     7    12    1
    14     8    13    1
