@<TRIPOS>MOLECULE
O=c1cc[nH]c2ncncc12
 16 17 0 0 0
SMALL
GASTEIGER
Energy = 0

@<TRIPOS>ATOM
      1 O           0.6541   -1.4816    0.0000 O.2     1  LIG1       -0.2871
      2 C           0.6541   -0.6566    0.0000 C.ar    1  LIG1        0.1924
      3 C           1.3686   -0.2441    0.0000 C.ar    1  LIG1        0.0018
      4 C           1.3686    0.5809    0.0000 C.ar    1  LIG1        0.0071
      5 N           0.6541    0.9934    0.0000 N.ar    1  LIG1       -0.3456
      6 C          -0.0604    0.5809    0.0000 C.ar    1  LIG1        0.1450
      7 N          -0.7748    0.9934    0.0000 N.ar    1  LIG1       -0.2178
      8 C          -1.4893    0.5809    0.0000 C.ar    1  LIG1        0.1182
      9 N          -1.4893   -0.2441    0.0000 N.ar    1  LIG1       -0.2429
     10 C          -0.7748   -0.6566    0.0000 C.ar    1  LIG1        0.0436
     11 C          -0.0604   -0.2441    0.0000 C.ar    1  LIG1        0.0820
     12 H           2.3225   -0.7949    0.0000 H       1  LIG1        0.0670
     13 H           2.3225    1.1317    0.0000 H       1  LIG1        0.0808
     14 H           0.6541    2.0759    0.0000 H       1  LIG1        0.1668
     15 H          -2.4432    1.1317    0.0000 H       1  LIG1        0.1047
     16 H          -0.7748   -1.7581    0.0000 H       1  LIG1        0.0838
@<TRIPOS>BOND
     1     1     2    2
     2     2     3   ar
     3     3     4   ar
     4     4     5   ar
     5     5     6   ar
     6     6     7   ar
     7     7     8   ar
     8     8     9   ar
     9     9    10   ar
    10    10    11   ar
    11     2    11   ar
    12     6    11   ar
    13     3    12    1
    14     4    13    1
    15     5    14    1
    16     8    15    1
    17    10    16    1
