@<TRIPOS>MOLECULE
Cn1c(=O)ncc2cccnc12
 19 20 0 0 0
SMALL
GASTEIGER
Energy = 0

@<TRIPOS>ATOM
      1 C           0.4177   -1.4197    0.0000 C.3     1  LIG1        0.0181
      2 N           0.4177   -0.5947    0.0000 N.ar    1  LIG1       -0.2796
      3 C           1.1322   -0.1822    0.0000 C.ar    1  LIG1        0.3497
      4 O           1.8467   -0.5947    0.0000 O.2     1  LIG1       -0.2445
      5 N           1.1322    0.6428    0.0000 N.ar    1  LIG1       -0.2006
      6 C           0.4177    1.0553    0.0000 C.ar    1  LIG1        0.0436
      7 C          -0.2967    0.6428    0.0000 C.ar    1  LIG1        0.0358
      8 C          -1.0112    1.0553    0.0000 C.ar    1  LIG1       -0.0482
      9 C          -1.7257    0.6428    0.0000 C.ar    1  LIG1       -0.0428
     10 C          -1.7257   -0.1822    0.0000 C.ar    1  LIG1        0.0299
     11 N          -1.0112   -0.5947    0.0000 N.ar    1  LIG1       -0.2371
     12 C          -0.2967   -0.1822    0.0000 C.ar    1  LIG1        0.1457
     13 H           1.4923   -1.8002    0.0000 H       1  LIG1        0.0458
     14 H          -0.1408   -1.8144   -0.9121 H       1  LIG1        0.0458
     15 H          -0.1125   -1.7944    0.9370 H       1  LIG1        0.0458
     16 H           0.4177    2.1568    0.0000 H       1  LIG1        0.0838
     17 H          -1.0112    2.1568    0.0000 H       1  LIG1        0.0626
     18 H          -2.6796    1.1936    0.0000 H       1  LIG1        0.0633
     19 H          -2.6796   -0.7330    0.0000 H       1  LIG1        0.0830
@<TRIPOS>BOND
     1     1     2    1
     2     2     3   ar
     3     3     4    2
     4     3     5   ar
     5     5     6   ar
     6     6     7   ar
     7     7     8   ar
     8     8     9   ar
     9     9    10   ar
    10    10    11   ar
    11    11    12   ar
    12     2    12   ar
    13     7    12   ar
    14     1    13    1
    15     1    14    1
    16     1    15    1
    17     6    16    1
    18     8    17    1
    19     9    18    1
    20    10    19    1
