@<TRIPOS>MOLECULE
O=c1[nH]ccc2ncnn12
 14 15 0 0 0
SMALL
GASTEIGER
Energy = 0

@<TRIPOS>ATOM
      1 O           0.4984   -1.4377    0.0000 O.2     1  LIG1       -0.2446
      2 C           0.4984   -0.6127    0.0000 C.ar    1  LIG1        0.3488
      3 N           1.2128   -0.2002    0.0000 N.ar    1  LIG1       -0.3128
      4 C           1.2128    0.6248    0.0000 C.ar    1  LIG1        0.0099
      5 C           0.4984    1.0373    0.0000 C.ar    1  LIG1       -0.0011
      6 C          -0.2161    0.6248    0.0000 C.ar    1  LIG1        0.1624
      7 N          -1.0007    0.8798    0.0000 N.ar    1  LIG1       -0.2146
      8 C          -1.4856    0.2123    0.0000 C.ar    1  LIG1        0.1392
      9 N          -1.0007   -0.4551    0.0000 N.ar    1  LIG1       -0.1492
     10 N          -0.2161   -0.2002    0.0000 N.ar    1  LIG1       -0.1621
     11 H           2.1503   -0.7414    0.0000 H       1  LIG1        0.1699
     12 H           2.1667    1.1755    0.0000 H       1  LIG1        0.0809
     13 H           0.4984    2.1388    0.0000 H       1  LIG1        0.0669
     14 H          -2.5871    0.2123    0.0000 H       1  LIG1        0.1066
@<TRIPOS>BOND
     1     1     2    2
     2     2     3   ar
     3     3     4   ar
     4     4     5   ar
     5     5     6   ar
     6     6     7   ar
     7     7     8   ar
     8     8     9   ar
     9     9    10   ar
    10     2    10   ar
    11     6    10   ar
    12     3    11    1
    13     4    12    1
    14     5    13    1
    15     8    14    1
