@<TRIPOS>MOLECULE
c1cc2nccnc2o1
 13 14 0 0 0
SMALL
GASTEIGER
Energy = 0

@<TRIPOS>ATOM
      1 O           0.9321   -0.6445    0.0000 O.2     1  LIG1       -0.4439
      2 C           1.4170    0.0229    0.0000 C.ar    1  LIG1        0.0966
      3 C           0.9321    0.6904    0.0000 C.ar    1  LIG1        0.0039
      4 C           0.1474    0.4354    0.0000 C.ar    1  LIG1        0.1284
      5 N          -0.5670    0.8479    0.0000 N.ar    1  LIG1       -0.2486
      6 C          -1.2815    0.4354    0.0000 C.ar    1  LIG1        0.0466
      7 C          -1.2815   -0.3896    0.0000 C.ar    1  LIG1        0.0495
      8 N          -0.5670   -0.8021    0.0000 N.ar    1  LIG1       -0.2177
      9 C           0.1474   -0.3896    0.0000 C.ar    1  LIG1        0.2459
     10 H           2.5185    0.0229    0.0000 H       1  LIG1        0.1031
     11 H           1.2725    1.7380    0.0000 H       1  LIG1        0.0671
     12 H          -2.2354    0.9862    0.0000 H       1  LIG1        0.0845
     13 H          -2.2354   -0.9404    0.0000 H       1  LIG1        0.0846
@<TRIPOS>BOND
     1     1     2   ar
     2     2     3   ar
     3     3     4   ar
     4     4     5   ar
     5     5     6   ar
     6     6     7   ar
     7     7     8   ar
     8     8     9   ar
     9     1     9   ar
    10     4     9   ar
    11     2    10    1
    12     3    11    1
    13     6    12    1
    14     7    13    1
