@<TRIPOS>MOLECULE
Cn1cnc2ncnnc2c1=O
 17 18 0 0 0
SMALL
GASTEIGER
Energy = 0

@<TRIPOS>ATOM
      1 C           1.9173   -0.5953    0.0000 C.3     1  LIG1        0.0161
      2 N           1.2028   -0.1828    0.0000 N.ar    1  LIG1       -0.3005
      3 C           1.2028    0.6422    0.0000 C.ar    1  LIG1        0.1008
      4 N           0.4884    1.0547    0.0000 N.ar    1  LIG1       -0.2160
      5 C          -0.2261    0.6422    0.0000 C.ar    1  LIG1        0.1884
      6 N          -0.9406    1.0547    0.0000 N.ar    1  LIG1       -0.2125
      7 C          -1.6551    0.6422    0.0000 C.ar    1  LIG1        0.1406
      8 N          -1.6551   -0.1828    0.0000 N.ar    1  LIG1       -0.1369
      9 N          -0.9406   -0.5953    0.0000 N.ar    1  LIG1       -0.1391
     10 C          -0.2261   -0.1828    0.0000 C.ar    1  LIG1        0.1943
     11 C           0.4884   -0.5953    0.0000 C.ar    1  LIG1        0.2831
     12 O           0.4884   -1.4203    0.0000 O.2     1  LIG1       -0.2651
     13 H           2.7841    0.1451    0.0000 H       1  LIG1        0.0457
     14 H           1.9799   -1.2763   -0.9121 H       1  LIG1        0.0457
     15 H           1.9767   -1.2419    0.9370 H       1  LIG1        0.0457
     16 H           2.1567    1.1929    0.0000 H       1  LIG1        0.1030
     17 H          -2.6090    1.1930    0.0000 H       1  LIG1        0.1066
@<TRIPOS>BOND
     1     1     2    1
     2     2     3   ar
     3     3     4   ar
     4     4     5   ar
     5     5     6   ar
     6     6     7   ar
     7     7     8   ar
     8     8     9   ar
     9     9    10   ar
    10     5    10   ar
    11    10    11   ar
    12     2    11   ar
    13    11    12    2
    14     1    13    1
    15     1    14    1
    16     1    15    1
    17     3    16    1
    18     7    17    1
