@<TRIPOS>MOLECULE
Cn1cc2cn[nH]c2c1
 16 17 0 0 0
SMALL
GASTEIGER
Energy = 0

@<TRIPOS>ATOM
      1 C           1.8878   -0.0117    0.0000 C.3     1  LIG1        0.0114
      2 N           1.0628   -0.0117    0.0000 N.ar    1  LIG1       -0.3536
      3 C           0.5778    0.6558    0.0000 C.ar    1  LIG1        0.0297
      4 C          -0.2068    0.4008    0.0000 C.ar    1  LIG1        0.0831
      5 N          -0.9914    0.6558    0.0000 N.ar    1  LIG1       -0.2755
      6 N          -1.4763   -0.0117    0.0000 N.ar    1  LIG1       -0.1811
      7 C          -0.9914   -0.6791    0.0000 C.ar    1  LIG1        0.0583
      8 C          -0.2068   -0.4242    0.0000 C.ar    1  LIG1        0.0370
      9 C           0.5778   -0.6791    0.0000 C.ar    1  LIG1        0.0150
     10 H           2.2683    1.0629    0.0000 H       1  LIG1        0.0455
     11 H           2.2825   -0.5702   -0.9121 H       1  LIG1        0.0455
     12 H           2.2625   -0.5419    0.9370 H       1  LIG1        0.0455
     13 H           0.9181    1.7034    0.0000 H       1  LIG1        0.0830
     14 H          -1.3259    1.6853    0.0000 H       1  LIG1        0.1890
     15 H          -1.3318   -1.7267    0.0000 H       1  LIG1        0.0854
     16 H           0.9181   -1.7267    0.0000 H       1  LIG1        0.0816
@<TRIPOS>BOND
     1     1     2    1
     2     2     3   ar
     3     3     4   ar
     4     4     5   ar
     5     5     6   ar
     6     6     7   ar
     7     7     8   ar
     8     4     8   ar
     9     8     9   ar
    10     2     9   ar
    11     1    10    1
    12     1    11    1
    13     1    12    1
    14     3    13    1
    15     5    14    1
    16     7    15    1
    17     9    16    1
