@<TRIPOS>MOLECULE
O=c1cnc2cnncc2[nH]1
 15 16 0 0 0
SMALL
GASTEIGER
Energy = 0

@<TRIPOS>ATOM
      1 O           1.9252    0.7334    0.0000 O.2     1  LIG1       -0.2662
      2 C           1.2107    0.3209    0.0000 C.ar    1  LIG1        0.2674
      3 N           0.4963    0.7334    0.0000 N.ar    1  LIG1       -0.3183
      4 C          -0.2182    0.3209    0.0000 C.ar    1  LIG1        0.0892
      5 C          -0.9327    0.7334    0.0000 C.ar    1  LIG1        0.0754
      6 N          -1.6471    0.3209    0.0000 N.ar    1  LIG1       -0.1555
      7 N          -1.6471   -0.5041    0.0000 N.ar    1  LIG1       -0.1555
      8 C          -0.9327   -0.9166    0.0000 C.ar    1  LIG1        0.0773
      9 C          -0.2182   -0.5041    0.0000 C.ar    1  LIG1        0.1086
     10 N           0.4963   -0.9166    0.0000 N.ar    1  LIG1       -0.2465
     11 C           1.2107   -0.5041    0.0000 C.ar    1  LIG1        0.0926
     12 H           0.4963    1.8159    0.0000 H       1  LIG1        0.1690
     13 H          -0.9327    1.8349    0.0000 H       1  LIG1        0.0870
     14 H          -0.9327   -2.0181    0.0000 H       1  LIG1        0.0870
     15 H           2.1646   -1.0548    0.0000 H       1  LIG1        0.0885
@<TRIPOS>BOND
     1     1     2    2
     2     2     3   ar
     3     3     4   ar
     4     4     5   ar
     5     5     6   ar
     6     6     7   ar
     7     7     8   ar
     8     8     9   ar
     9     4     9   ar
    10     9    10   ar
    11    10    11   ar
    12     2    11   ar
    13     3    12    1
    14     5    13    1
    15     8    14    1
    16    11    15    1
