@<TRIPOS>MOLECULE
O=c1cc2cncnc2c[nH]1
 16 17 0 0 0
SMALL
GASTEIGER
Energy = 0

@<TRIPOS>ATOM
      1 O           1.9121   -0.7437    0.0000 O.2     1  LIG1       -0.2679
      2 C           1.1976   -0.3312    0.0000 C.ar    1  LIG1        0.2494
      3 N           1.1976    0.4938    0.0000 N.ar    1  LIG1       -0.3270
      4 C           0.4832    0.9063    0.0000 C.ar    1  LIG1        0.0310
      5 C          -0.2313    0.4938    0.0000 C.ar    1  LIG1        0.0903
      6 N          -0.9458    0.9063    0.0000 N.ar    1  LIG1       -0.2340
      7 C          -1.6602    0.4938    0.0000 C.ar    1  LIG1        0.1166
      8 N          -1.6602   -0.3312    0.0000 N.ar    1  LIG1       -0.2431
      9 C          -0.9458   -0.7437    0.0000 C.ar    1  LIG1        0.0387
     10 C          -0.2313   -0.3312    0.0000 C.ar    1  LIG1        0.0250
     11 C           0.4832   -0.7437    0.0000 C.ar    1  LIG1        0.0134
     12 H           2.1351    1.0350    0.0000 H       1  LIG1        0.1684
     13 H           0.4832    2.0078    0.0000 H       1  LIG1        0.0829
     14 H          -2.6141    1.0445    0.0000 H       1  LIG1        0.1047
     15 H          -0.9458   -1.8452    0.0000 H       1  LIG1        0.0837
     16 H           0.4832   -1.8452    0.0000 H       1  LIG1        0.0679
@<TRIPOS>BOND
     1     1     2    2
     2     2     3   ar
     3     3     4   ar
     4     4     5   ar
     5     5     6   ar
     6     6     7   ar
     7     7     8   ar
     8     8     9   ar
     9     9    10   ar
    10     5    10   ar
    11    10    11   ar
    12     2    11   ar
    13     3    12    1
    14     4    13    1
    15     7    14    1
    16     9    15    1
    17    11    16    1
