@<TRIPOS>MOLECULE
O=c1cccc2ocnn12
 14 15 0 0 0
SMALL
GASTEIGER
Energy = 0

@<TRIPOS>ATOM
      1 O           0.5318   -1.4540    0.0000 O.2     1  LIG1       -0.2658
      2 C           0.5318   -0.6290    0.0000 C.ar    1  LIG1        0.2744
      3 C           1.2463   -0.2165    0.0000 C.ar    1  LIG1        0.0050
      4 C           1.2463    0.6085    0.0000 C.ar    1  LIG1       -0.0515
      5 C           0.5318    1.0210    0.0000 C.ar    1  LIG1        0.0007
      6 C          -0.1827    0.6085    0.0000 C.ar    1  LIG1        0.2262
      7 O          -0.9673    0.8635    0.0000 O.2     1  LIG1       -0.4249
      8 C          -1.4522    0.1960    0.0000 C.ar    1  LIG1        0.2031
      9 N          -0.9673   -0.4714    0.0000 N.ar    1  LIG1       -0.1306
     10 N          -0.1827   -0.2165    0.0000 N.ar    1  LIG1       -0.1601
     11 H           2.2002   -0.7673    0.0000 H       1  LIG1        0.0672
     12 H           2.2002    1.1593    0.0000 H       1  LIG1        0.0621
     13 H           0.5318    2.1225    0.0000 H       1  LIG1        0.0671
     14 H          -2.5537    0.1960    0.0000 H       1  LIG1        0.1272
@<TRIPOS>BOND
     1     1     2    2
     2     2     3   ar
     3     3     4   ar
     4     4     5   ar
     5     5     6   ar
     6     6     7   ar
     7     7     8   ar
     8     8     9   ar
     9     9    10   ar
    10     2    10   ar
    11     6    10   ar
    12     3    11    1
    13     4    12    1
    14     5    13    1
    15     8    14    1
