@<TRIPOS>MOLECULE
c1ccncc1
 11 11 0 0 0
SMALL
GASTEIGER
Energy = 0

@<TRIPOS>ATOM
      1 C          -0.0000   -0.8472    0.0000 C.ar    1  LIG1       -0.0589
      2 C           0.7145   -0.4347    0.0000 C.ar    1  LIG1       -0.0436
      3 C           0.7145    0.3903    0.0000 C.ar    1  LIG1        0.0276
      4 N           0.0000    0.8028    0.0000 N.ar    1  LIG1       -0.2633
      5 C          -0.7145    0.3903    0.0000 C.ar    1  LIG1        0.0276
      6 C          -0.7145   -0.4347    0.0000 C.ar    1  LIG1       -0.0436
      7 H           0.0000   -1.9487    0.0000 H       1  LIG1        0.0618
      8 H           1.6684   -0.9855    0.0000 H       1  LIG1        0.0633
      9 H           1.6684    0.9411    0.0000 H       1  LIG1        0.0829
     10 H          -1.6684    0.9411    0.0000 H       1  LIG1        0.0829
     11 H          -1.6684   -0.9855    0.0000 H       1  LIG1        0.0633
@<TRIPOS>BOND
     1     1     2   ar
     2     2     3   ar
     3     3     4   ar
     4     4     5   ar
     5     5     6   ar
     6     1     6   ar
     7     1     7    1
     8     2     8    1
     9     3     9    1
    10     5    10    1
    11     6    11    1
