@<TRIPOS>MOLECULE
Cn1ccc2c(=O)ncc2[nH]1
 18 19 0 0 0
SMALL
GASTEIGER
Energy = 0

@<TRIPOS>ATOM
      1 C          -1.9446    0.9014    0.0000 C.3     1  LIG1        0.0281
      2 N          -1.2301    0.4889    0.0000 N.ar    1  LIG1       -0.2965
      3 N          -0.5157    0.9014    0.0000 N.ar    1  LIG1       -0.2958
      4 C           0.1988    0.4889    0.0000 C.ar    1  LIG1        0.0858
      5 C           0.1988   -0.3361    0.0000 C.ar    1  LIG1        0.0687
      6 C          -0.5157   -0.7486    0.0000 C.ar    1  LIG1       -0.0296
      7 C          -1.2301   -0.3361    0.0000 C.ar    1  LIG1        0.0224
      8 C           0.9834   -0.5911    0.0000 C.ar    1  LIG1        0.2795
      9 O           1.2384   -1.3757    0.0000 O.2     1  LIG1       -0.2652
     10 N           1.4683    0.0764    0.0000 N.ar    1  LIG1       -0.2148
     11 C           0.9834    0.7438    0.0000 C.ar    1  LIG1        0.0570
     12 H          -1.7369    2.0223    0.0000 H       1  LIG1        0.0472
     13 H          -2.5656    0.6151    0.9121 H       1  LIG1        0.0472
     14 H          -2.5343    0.6296   -0.9370 H       1  LIG1        0.0472
     15 H          -0.5157    1.9839    0.0000 H       1  LIG1        0.1870
     16 H          -0.5157   -1.8501    0.0000 H       1  LIG1        0.0641
     17 H          -2.1840   -0.8868    0.0000 H       1  LIG1        0.0825
     18 H           1.3238    1.7914    0.0000 H       1  LIG1        0.0852
@<TRIPOS>BOND
     1     1     2    1
     2     2     3   ar
     3     3     4   ar
     4     4     5   ar
     5     5     6   ar
     6     6     7   ar
     7     2     7   ar
     8     5     8   ar
     9     8     9    2
    10     8    10   ar
    11    10    11   ar
    12     4    11   ar
    13     1    12    1
    14     1    13    1
    15     1    14    1
    16     3    15    1
    17     6    16    1
    18     7    17    1
    19    11    18    1
