@<TRIPOS>MOLECULE
Cn1cc2cnoc2nc1=O
 16 17 0 0 0
SMALL
GASTEIGER
Energy = 0

@<TRIPOS>ATOM
      1 C           1.6229    0.8714    0.0000 C.3     1  LIG1        0.0162
      2 N           0.9084    0.4589    0.0000 N.ar    1  LIG1       -0.3013
      3 C           0.1939    0.8714    0.0000 C.ar    1  LIG1        0.0230
      4 C          -0.5206    0.4589    0.0000 C.ar    1  LIG1        0.0769
      5 C          -1.3052    0.7138    0.0000 C.ar    1  LIG1        0.0808
      6 N          -1.7901    0.0464    0.0000 N.ar    1  LIG1       -0.0835
      7 O          -1.3052   -0.6211    0.0000 O.2     1  LIG1       -0.3343
      8 C          -0.5206   -0.3661    0.0000 C.ar    1  LIG1        0.2640
      9 N           0.1939   -0.7786    0.0000 N.ar    1  LIG1       -0.1546
     10 C           0.9084   -0.3661    0.0000 C.ar    1  LIG1        0.3514
     11 O           1.6229   -0.7786    0.0000 O.2     1  LIG1       -0.2444
     12 H           1.4152    1.9923    0.0000 H       1  LIG1        0.0457
     13 H           2.2439    0.5851   -0.9121 H       1  LIG1        0.0457
     14 H           2.2126    0.5996    0.9370 H       1  LIG1        0.0457
     15 H           0.1939    1.9729    0.0000 H       1  LIG1        0.0818
     16 H          -1.6456    1.7614    0.0000 H       1  LIG1        0.0871
@<TRIPOS>BOND
     1     1     2    1
     2     2     3   ar
     3     3     4   ar
     4     4     5   ar
     5     5     6   ar
     6     6     7   ar
     7     7     8   ar
     8     4     8   ar
     9     8     9   ar
    10     9    10   ar
    11     2    10   ar
    12    10    11    2
    13     1    12    1
    14     1    13    1
    15     1    14    1
    16     3    15    1
    17     5    16    1
