@<TRIPOS>MOLECULE
Cn1ncc2[nH]c(=O)ncc12
 17 18 0 0 0
SMALL
GASTEIGER
Energy = 0

@<TRIPOS>ATOM
      1 C           1.3128   -1.4191    0.0000 C.3     1  LIG1        0.0310
      2 N           1.0579   -0.6345    0.0000 N.ar    1  LIG1       -0.2638
      3 N           1.5428    0.0330    0.0000 N.ar    1  LIG1       -0.1772
      4 C           1.0579    0.7004    0.0000 C.ar    1  LIG1        0.0735
      5 C           0.2733    0.4455    0.0000 C.ar    1  LIG1        0.0898
      6 C           0.2733   -0.3795    0.0000 C.ar    1  LIG1        0.1030
      7 C          -0.4412   -0.7920    0.0000 C.ar    1  LIG1        0.0600
      8 N          -1.1557   -0.3795    0.0000 N.ar    1  LIG1       -0.1994
      9 C          -1.1557    0.4455    0.0000 C.ar    1  LIG1        0.3464
     10 O          -1.8701    0.8580    0.0000 O.2     1  LIG1       -0.2447
     11 N          -0.4412    0.8580    0.0000 N.ar    1  LIG1       -0.3032
     12 H           2.4524   -1.4490    0.0000 H       1  LIG1        0.0473
     13 H           0.9036   -1.9670   -0.9121 H       1  LIG1        0.0473
     14 H           0.9243   -1.9393    0.9370 H       1  LIG1        0.0473
     15 H           1.3983    1.7480    0.0000 H       1  LIG1        0.0869
     16 H          -0.4412   -1.8935    0.0000 H       1  LIG1        0.0853
     17 H          -0.4412    1.9405    0.0000 H       1  LIG1        0.1705
@<TRIPOS>BOND
     1     1     2    1
     2     2     3   ar
     3     3     4   ar
     4     4     5   ar
     5     5     6   ar
     6     2     6   ar
     7     6     7   ar
     8     7     8   ar
     9     8     9   ar
    10     9    10    2
    11     9    11   ar
    12     5    11   ar
    13     1    12    1
    14     1    13    1
    15     1    14    1
    16     4    15    1
    17     7    16    1
    18    11    17    1
