@<TRIPOS>MOLECULE
c1noc2ccccc12
 14 15 0 0 0
SMALL
GASTEIGER
Energy = 0

@<TRIPOS>ATOM
      1 O           0.8874   -0.6441    0.0000 O.2     1  LIG1       -0.3547
      2 N           1.3724    0.0233    0.0000 N.ar    1  LIG1       -0.0855
      3 C           0.8874    0.6908    0.0000 C.ar    1  LIG1        0.0778
      4 C           0.1028    0.4358    0.0000 C.ar    1  LIG1        0.0411
      5 C          -0.6117    0.8483    0.0000 C.ar    1  LIG1       -0.0494
      6 C          -1.3261    0.4358    0.0000 C.ar    1  LIG1       -0.0609
      7 C          -1.3261   -0.3892    0.0000 C.ar    1  LIG1       -0.0582
      8 C          -0.6117   -0.8017    0.0000 C.ar    1  LIG1       -0.0161
      9 C           0.1028   -0.3892    0.0000 C.ar    1  LIG1        0.1672
     10 H           1.2277    1.7384    0.0000 H       1  LIG1        0.0870
     11 H          -0.6117    1.9498    0.0000 H       1  LIG1        0.0625
     12 H          -2.2800    0.9865    0.0000 H       1  LIG1        0.0618
     13 H          -2.2800   -0.9399    0.0000 H       1  LIG1        0.0619
     14 H          -0.6117   -1.9032    0.0000 H       1  LIG1        0.0655
@<TRIPOS>BOND
     1     1     2   ar
     2     2     3   ar
     3     3     4   ar
     4     4     5   ar
     5     5     6   ar
     6     6     7   ar
     7     7     8   ar
     8     8     9   ar
     9     1     9   ar
    10     4     9   ar
    11     3    10    1
    12     5    11    1
    13     6    12    1
    14     7    13    1
    15     8    14    1
