@<TRIPOS>MOLECULE
O=c1[nH]ncc2ccnnc12
 15 16 0 0 0
SMALL
GASTEIGER
Energy = 0

@<TRIPOS>ATOM
      1 O           0.6252   -1.4496    0.0000 O.2     1  LIG1       -0.2640
      2 C           0.6252   -0.6246    0.0000 C.ar    1  LIG1        0.2925
      3 N           1.3397   -0.2121    0.0000 N.ar    1  LIG1       -0.2414
      4 N           1.3397    0.6129    0.0000 N.ar    1  LIG1       -0.1787
      5 C           0.6252    1.0254    0.0000 C.ar    1  LIG1        0.0573
      6 C          -0.0892    0.6129    0.0000 C.ar    1  LIG1        0.0287
      7 C          -0.8037    1.0254    0.0000 C.ar    1  LIG1       -0.0310
      8 C          -1.5182    0.6129    0.0000 C.ar    1  LIG1        0.0506
      9 N          -1.5182   -0.2121    0.0000 N.ar    1  LIG1       -0.1569
     10 N          -0.8037   -0.6246    0.0000 N.ar    1  LIG1       -0.1437
     11 C          -0.0892   -0.2121    0.0000 C.ar    1  LIG1        0.1602
     12 H           2.2772   -0.7534    0.0000 H       1  LIG1        0.1922
     13 H           0.6252    2.1269    0.0000 H       1  LIG1        0.0854
     14 H          -0.8037    2.1269    0.0000 H       1  LIG1        0.0640
     15 H          -2.4721    1.1637    0.0000 H       1  LIG1        0.0848
@<TRIPOS>BOND
     1     1     2    2
     2     2     3   ar
     3     3     4   ar
     4     4     5   ar
     5     5     6   ar
     6     6     7   ar
     7     7     8   ar
     8     8     9   ar
     9     9    10   ar
    10    10    11   ar
    11     2    11   ar
    12     6    11   ar
    13     3    12    1
    14     5    13    1
    15     7    14    1
    16     8    15    1
