@<TRIPOS>MOLECULE
O=c1cnnc2scnn12
 12 13 0 0 0
SMALL
GASTEIGER
Energy = 0

@<TRIPOS>ATOM
      1 O           0.6106   -1.5665    0.0000 O.2     1  LIG1       -0.2641
      2 C           0.6106   -0.7415    0.0000 C.ar    1  LIG1        0.2935
      3 C           1.3251   -0.3290    0.0000 C.ar    1  LIG1        0.1162
      4 N           1.3251    0.4960    0.0000 N.ar    1  LIG1       -0.1496
      5 N           0.6106    0.9085    0.0000 N.ar    1  LIG1       -0.1218
      6 C          -0.1039    0.4960    0.0000 C.ar    1  LIG1        0.2192
      7 S          -0.8885    0.7509    0.0000 S.2     1  LIG1       -0.0345
      8 C          -1.3734    0.0835    0.0000 C.ar    1  LIG1        0.0890
      9 N          -0.8885   -0.5840    0.0000 N.ar    1  LIG1       -0.1626
     10 N          -0.1039   -0.3290    0.0000 N.ar    1  LIG1       -0.1685
     11 H           2.2790   -0.8798    0.0000 H       1  LIG1        0.0904
     12 H          -2.4749    0.0835    0.0000 H       1  LIG1        0.0926
@<TRIPOS>BOND
     1     1     2    2
     2     2     3   ar
     3     3     4   ar
     4     4     5   ar
     5     5     6   ar
     6     6     7   ar
     7     7     8   ar
     8     8     9   ar
     9     9    10   ar
    10     2    10   ar
    11     6    10   ar
    12     3    11    1
    13     8    12    1
