@<TRIPOS>MOLECULE
Cn1cc2cncnc2n1
 16 17 0 0 0
SMALL
GASTEIGER
Energy = 0

@<TRIPOS>ATOM
      1 C           2.0353    0.0168    0.0000 C.3     1  LIG1        0.0303
      2 N           1.2103    0.0168    0.0000 N.ar    1  LIG1       -0.2718
      3 C           0.7254    0.6843    0.0000 C.ar    1  LIG1        0.0359
      4 C          -0.0592    0.4293    0.0000 C.ar    1  LIG1        0.0566
      5 C          -0.7737    0.8418    0.0000 C.ar    1  LIG1        0.0415
      6 N          -1.4882    0.4293    0.0000 N.ar    1  LIG1       -0.2429
      7 C          -1.4882   -0.3957    0.0000 C.ar    1  LIG1        0.1184
      8 N          -0.7737   -0.8082    0.0000 N.ar    1  LIG1       -0.2144
      9 C          -0.0592   -0.3957    0.0000 C.ar    1  LIG1        0.1841
     10 N           0.7254   -0.6506    0.0000 N.ar    1  LIG1       -0.1512
     11 H           2.4158    1.0914    0.0000 H       1  LIG1        0.0473
     12 H           2.4300   -0.5417   -0.9121 H       1  LIG1        0.0473
     13 H           2.4100   -0.5134    0.9370 H       1  LIG1        0.0473
     14 H           1.0658    1.7319    0.0000 H       1  LIG1        0.0833
     15 H          -0.7737    1.9433    0.0000 H       1  LIG1        0.0838
     16 H          -2.4421   -0.9465    0.0000 H       1  LIG1        0.1047
@<TRIPOS>BOND
     1     1     2    1
     2     2     3   ar
     3     3     4   ar
     4     4     5   ar
     5     5     6   ar
     6     6     7   ar
     7     7     8   ar
     8     8     9   ar
     9     4     9   ar
    10     9    10   ar
    11     2    10   ar
    12     1    11    1
    13     1    12    1
    14     1    13    1
    15     3    14    1
    16     5    15    1
    17     7    16    1
