@<TRIPOS>MOLECULE
O=c1ncc2nnccc2[nH]1
 15 16 0 0 0
SMALL
GASTEIGER
Energy = 0

@<TRIPOS>ATOM
      1 O           1.9054    0.7448    0.0000 O.2     1  LIG1       -0.2447
      2 C           1.1909    0.3323    0.0000 C.ar    1  LIG1        0.3463
      3 N           0.4765    0.7448    0.0000 N.ar    1  LIG1       -0.3044
      4 C          -0.2380    0.3323    0.0000 C.ar    1  LIG1        0.0736
      5 C          -0.9525    0.7448    0.0000 C.ar    1  LIG1       -0.0162
      6 C          -1.6669    0.3323    0.0000 C.ar    1  LIG1        0.0519
      7 N          -1.6669   -0.4927    0.0000 N.ar    1  LIG1       -0.1570
      8 N          -0.9525   -0.9052    0.0000 N.ar    1  LIG1       -0.1463
      9 C          -0.2380   -0.4927    0.0000 C.ar    1  LIG1        0.1276
     10 C           0.4765   -0.9052    0.0000 C.ar    1  LIG1        0.0621
     11 N           1.1909   -0.4927    0.0000 N.ar    1  LIG1       -0.1993
     12 H           0.4765    1.8273    0.0000 H       1  LIG1        0.1705
     13 H          -0.9525    1.8463    0.0000 H       1  LIG1        0.0654
     14 H          -2.6208    0.8830    0.0000 H       1  LIG1        0.0848
     15 H           0.4765   -2.0067    0.0000 H       1  LIG1        0.0854
@<TRIPOS>BOND
     1     1     2    2
     2     2     3   ar
     3     3     4   ar
     4     4     5   ar
     5     5     6   ar
     6     6     7   ar
     7     7     8   ar
     8     8     9   ar
     9     4     9   ar
    10     9    10   ar
    11    10    11   ar
    12     2    11   ar
    13     3    12    1
    14     5    13    1
    15     6    14    1
    16    10    15    1
