@<TRIPOS>MOLECULE
Cn1cnc(=O)n2nccc12
 17 18 0 0 0
SMALL
GASTEIGER
Energy = 0

@<TRIPOS>ATOM
      1 C           0.4361   -1.7049    0.0000 C.3     1  LIG1        0.0146
      2 N           0.4361   -0.8799    0.0000 N.ar    1  LIG1       -0.3195
      3 C           1.1505   -0.4674    0.0000 C.ar    1  LIG1        0.1026
      4 N           1.1505    0.3576    0.0000 N.ar    1  LIG1       -0.1817
      5 C           0.4361    0.7701    0.0000 C.ar    1  LIG1        0.3718
      6 O           0.4361    1.5951    0.0000 O.2     1  LIG1       -0.2425
      7 N          -0.2784    0.3576    0.0000 N.ar    1  LIG1       -0.1636
      8 N          -1.0630    0.6125    0.0000 N.ar    1  LIG1       -0.1691
      9 C          -1.5480   -0.0549    0.0000 C.ar    1  LIG1        0.0520
     10 C          -1.0630   -0.7224    0.0000 C.ar    1  LIG1        0.0009
     11 C          -0.2784   -0.4674    0.0000 C.ar    1  LIG1        0.1426
     12 H           1.5107   -2.0854    0.0000 H       1  LIG1        0.0457
     13 H          -0.1224   -2.0996   -0.9121 H       1  LIG1        0.0457
     14 H          -0.0941   -2.0796    0.9370 H       1  LIG1        0.0457
     15 H           2.1044   -1.0181    0.0000 H       1  LIG1        0.1031
     16 H          -2.6495   -0.0549    0.0000 H       1  LIG1        0.0848
     17 H          -1.4033   -1.7700    0.0000 H       1  LIG1        0.0670
@<TRIPOS>BOND
     1     1     2    1
     2     2     3   ar
     3     3     4   ar
     4     4     5   ar
     5     5     6    2
     6     5     7   ar
     7     7     8   ar
     8     8     9   ar
     9     9    10   ar
    10    10    11   ar
    11     2    11   ar
    12     7    11   ar
    13     1    12    1
    14     1    13    1
    15     1    14    1
    16     3    15    1
    17     9    16    1
    18    10    17    1
