@<TRIPOS>MOLECULE
Cn1cc2cnnnc2c1
 16 17 0 0 0
SMALL
GASTEIGER
Energy = 0

@<TRIPOS>ATOM
      1 C           2.0698    0.0129    0.0000 C.3     1  LIG1        0.0114
      2 N           1.2448    0.0129    0.0000 N.ar    1  LIG1       -0.3535
      3 C           0.7599    0.6803    0.0000 C.ar    1  LIG1        0.0151
      4 C          -0.0247    0.4254    0.0000 C.ar    1  LIG1        0.0395
      5 C          -0.7392    0.8379    0.0000 C.ar    1  LIG1        0.0623
      6 N          -1.4537    0.4254    0.0000 N.ar    1  LIG1       -0.1371
      7 N          -1.4537   -0.3996    0.0000 N.ar    1  LIG1       -0.0427
      8 N          -0.7392   -0.8121    0.0000 N.ar    1  LIG1       -0.1278
      9 C          -0.0247   -0.3996    0.0000 C.ar    1  LIG1        0.1138
     10 C           0.7599   -0.6546    0.0000 C.ar    1  LIG1        0.0322
     11 H           2.4503    1.0875    0.0000 H       1  LIG1        0.0455
     12 H           2.4645   -0.5456   -0.9121 H       1  LIG1        0.0455
     13 H           2.4445   -0.5173    0.9370 H       1  LIG1        0.0455
     14 H           1.1003    1.7279    0.0000 H       1  LIG1        0.0816
     15 H          -0.7392    1.9394    0.0000 H       1  LIG1        0.0856
     16 H           1.1003   -1.7022    0.0000 H       1  LIG1        0.0831
@<TRIPOS>BOND
     1     1     2    1
     2     2     3   ar
     3     3     4   ar
     4     4     5   ar
     5     5     6   ar
     6     6     7   ar
     7     7     8   ar
     8     8     9   ar
     9     4     9   ar
    10     9    10   ar
    11     2    10   ar
    12     1    11    1
    13     1    12    1
    14     1    13    1
    15     3    14    1
    16     5    15    1
    17    10    16    1
