@<TRIPOS>MOLECULE
c1nc2ccnnc2s1
 12 13 0 0 0
SMALL
GASTEIGER
Energy = 0

@<TRIPOS>ATOM
      1 S           0.8172   -0.5592    0.0000 S.2     1  LIG1       -0.0541
      2 C           1.3021    0.1083    0.0000 C.ar    1  LIG1        0.0674
      3 N           0.8172    0.7757    0.0000 N.ar    1  LIG1       -0.2457
      4 C           0.0326    0.5208    0.0000 C.ar    1  LIG1        0.0998
      5 C          -0.6819    0.9333    0.0000 C.ar    1  LIG1       -0.0138
      6 C          -1.3964    0.5208    0.0000 C.ar    1  LIG1        0.0520
      7 N          -1.3964   -0.3042    0.0000 N.ar    1  LIG1       -0.1565
      8 N          -0.6819   -0.7167    0.0000 N.ar    1  LIG1       -0.1404
      9 C           0.0326   -0.3042    0.0000 C.ar    1  LIG1        0.1501
     10 H           2.4036    0.1083    0.0000 H       1  LIG1        0.0908
     11 H          -0.6819    2.0348    0.0000 H       1  LIG1        0.0655
     12 H          -2.3503    1.0716    0.0000 H       1  LIG1        0.0849
@<TRIPOS>BOND
     1     1     2   ar
     2     2     3   ar
     3     3     4   ar
     4     4     5   ar
     5     5     6   ar
     6     6     7   ar
     7     7     8   ar
     8     8     9   ar
     9     1     9   ar
    10     4     9   ar
    11     2    10    1
    12     5    11    1
    13     6    12    1
