@<TRIPOS>MOLECULE
Cn1cc2ccnnc2c1
 17 18 0 0 0
SMALL
GASTEIGER
Energy = 0

@<TRIPOS>ATOM
      1 C           2.0468    0.0196    0.0000 C.3     1  LIG1        0.0114
      2 N           1.2218    0.0196    0.0000 N.ar    1  LIG1       -0.3536
      3 C           0.7369    0.6870    0.0000 C.ar    1  LIG1        0.0136
      4 C          -0.0477    0.4321    0.0000 C.ar    1  LIG1        0.0211
      5 C          -0.7622    0.8446    0.0000 C.ar    1  LIG1       -0.0312
      6 C          -1.4767    0.4321    0.0000 C.ar    1  LIG1        0.0506
      7 N          -1.4767   -0.3929    0.0000 N.ar    1  LIG1       -0.1571
      8 N          -0.7622   -0.8054    0.0000 N.ar    1  LIG1       -0.1478
      9 C          -0.0477   -0.3929    0.0000 C.ar    1  LIG1        0.1107
     10 C           0.7369   -0.6478    0.0000 C.ar    1  LIG1        0.0321
     11 H           2.4273    1.0942    0.0000 H       1  LIG1        0.0455
     12 H           2.4415   -0.5389   -0.9121 H       1  LIG1        0.0455
     13 H           2.4215   -0.5106    0.9370 H       1  LIG1        0.0455
     14 H           1.0773    1.7346    0.0000 H       1  LIG1        0.0815
     15 H          -0.7622    1.9461    0.0000 H       1  LIG1        0.0640
     16 H          -2.4306    0.9829    0.0000 H       1  LIG1        0.0848
     17 H           1.0773   -1.6954    0.0000 H       1  LIG1        0.0831
@<TRIPOS>BOND
     1     1     2    1
     2     2     3   ar
     3     3     4   ar
     4     4     5   ar
     5     5     6   ar
     6     6     7   ar
     7     7     8   ar
     8     8     9   ar
     9     4     9   ar
    10     9    10   ar
    11     2    10   ar
    12     1    11    1
    13     1    12    1
    14     1    13    1
    15     3    14    1
    16     5    15    1
    17     6    16    1
    18    10    17    1
