@<TRIPOS>MOLECULE
Cn1ncc2c(=O)cc[nH]c12
 18 19 0 0 0
SMALL
GASTEIGER
Energy = 0

@<TRIPOS>ATOM
      1 C           1.1357   -1.4941    0.0000 C.3     1  LIG1        0.0324
      2 N           0.8808   -0.7095    0.0000 N.ar    1  LIG1       -0.2509
      3 N           1.3657   -0.0421    0.0000 N.ar    1  LIG1       -0.1773
      4 C           0.8808    0.6254    0.0000 C.ar    1  LIG1        0.0623
      5 C           0.0962    0.3704    0.0000 C.ar    1  LIG1        0.0832
      6 C           0.0962   -0.4546    0.0000 C.ar    1  LIG1        0.1397
      7 N          -0.6183   -0.8671    0.0000 N.ar    1  LIG1       -0.3458
      8 C          -1.3328   -0.4546    0.0000 C.ar    1  LIG1        0.0071
      9 C          -1.3328    0.3704    0.0000 C.ar    1  LIG1        0.0018
     10 C          -0.6183    0.7829    0.0000 C.ar    1  LIG1        0.1924
     11 O          -0.6183    1.6079    0.0000 O.2     1  LIG1       -0.2871
     12 H           2.2753   -1.5240    0.0000 H       1  LIG1        0.0473
     13 H           0.7265   -2.0420   -0.9121 H       1  LIG1        0.0473
     14 H           0.7472   -2.0143    0.9370 H       1  LIG1        0.0473
     15 H           1.2212    1.6730    0.0000 H       1  LIG1        0.0856
     16 H          -0.6183   -1.9496    0.0000 H       1  LIG1        0.1668
     17 H          -2.2867   -1.0054    0.0000 H       1  LIG1        0.0808
     18 H          -2.2867    0.9212    0.0000 H       1  LIG1        0.0670
@<TRIPOS>BOND
     1     1     2    1
     2     2     3   ar
     3     3     4   ar
     4     4     5   ar
     5     5     6   ar
     6     2     6   ar
     7     6     7   ar
     8     7     8   ar
     9     8     9   ar
    10     9    10   ar
    11     5    10   ar
    12    10    11    2
    13     1    12    1
    14     1    13    1
    15     1    14    1
    16     4    15    1
    17     7    16    1
    18     8    17    1
    19     9    18    1
