@<TRIPOS>MOLECULE
O=c1cnc2occc2[nH]1
 14 15 0 0 0
SMALL
GASTEIGER
Energy = 0

@<TRIPOS>ATOM
      1 O          -1.7542    0.7452    0.0000 O.2     1  LIG1       -0.2662
      2 C          -1.0397    0.3327    0.0000 C.ar    1  LIG1        0.2675
      3 N          -0.3252    0.7452    0.0000 N.ar    1  LIG1       -0.3170
      4 C           0.3892    0.3327    0.0000 C.ar    1  LIG1        0.1076
      5 C           0.3892   -0.4923    0.0000 C.ar    1  LIG1        0.2440
      6 O           1.1738   -0.7472    0.0000 O.2     1  LIG1       -0.4440
      7 C           1.6588   -0.0798    0.0000 C.ar    1  LIG1        0.0965
      8 C           1.1738    0.5877    0.0000 C.ar    1  LIG1        0.0019
      9 N          -0.3252   -0.9048    0.0000 N.ar    1  LIG1       -0.2139
     10 C          -1.0397   -0.4923    0.0000 C.ar    1  LIG1        0.0957
     11 H          -0.3252    1.8277    0.0000 H       1  LIG1        0.1691
     12 H           2.7603   -0.0798    0.0000 H       1  LIG1        0.1031
     13 H           1.5141    1.6353    0.0000 H       1  LIG1        0.0670
     14 H          -1.9936   -1.0431    0.0000 H       1  LIG1        0.0886
@<TRIPOS>BOND
     1     1     2    2
     2     2     3   ar
     3     3     4   ar
     4     4     5   ar
     5     5     6   ar
     6     6     7   ar
     7     7     8   ar
     8     4     8   ar
     9     5     9   ar
    10     9    10   ar
    11     2    10   ar
    12     3    11    1
    13     7    12    1
    14     8    13    1
    15    10    14    1
