@<TRIPOS>MOLECULE
Cn1ccc2[nH]c(=O)ncc12
 18 19 0 0 0
SMALL
GASTEIGER
Energy = 0

@<TRIPOS>ATOM
      1 C           1.3345   -1.4186    0.0000 C.3     1  LIG1        0.0120
      2 N           1.0796   -0.6340    0.0000 N.ar    1  LIG1       -0.3473
      3 C           1.5645    0.0334    0.0000 C.ar    1  LIG1        0.0069
      4 C           1.0796    0.7009    0.0000 C.ar    1  LIG1       -0.0200
      5 C           0.2950    0.4459    0.0000 C.ar    1  LIG1        0.0698
      6 C           0.2950   -0.3791    0.0000 C.ar    1  LIG1        0.0838
      7 C          -0.4195   -0.7916    0.0000 C.ar    1  LIG1        0.0585
      8 N          -1.1340   -0.3791    0.0000 N.ar    1  LIG1       -0.1994
      9 C          -1.1340    0.4459    0.0000 C.ar    1  LIG1        0.3463
     10 O          -1.8485    0.8584    0.0000 O.2     1  LIG1       -0.2447
     11 N          -0.4195    0.8584    0.0000 N.ar    1  LIG1       -0.3045
     12 H           2.4741   -1.4485    0.0000 H       1  LIG1        0.0456
     13 H           0.9253   -1.9665   -0.9121 H       1  LIG1        0.0456
     14 H           0.9460   -1.9388    0.9370 H       1  LIG1        0.0456
     15 H           2.6660    0.0334    0.0000 H       1  LIG1        0.0810
     16 H           1.4200    1.7485    0.0000 H       1  LIG1        0.0653
     17 H          -0.4195   -1.8931    0.0000 H       1  LIG1        0.0853
     18 H          -0.4195    1.9409    0.0000 H       1  LIG1        0.1705
@<TRIPOS>BOND
     1     1     2    1
     2     2     3   ar
     3     3     4   ar
     4     4     5   ar
     5     5     6   ar
     6     2     6   ar
     7     6     7   ar
     8     7     8   ar
     9     8     9   ar
    10     9    10    2
    11     9    11   ar
    12     5    11   ar
    13     1    12    1
    14     1    13    1
    15     1    14    1
    16     3    15    1
    17     4    16    1
    18     7    17    1
    19    11    18    1
