@<TRIPOS>MOLECULE
O=c1nccc2[nH]cccc12
 17 18 0 0 0
SMALL
GASTEIGER
Energy = 0

@<TRIPOS>ATOM
      1 O           0.6227   -1.4674    0.0000 O.2     1  LIG1       -0.2652
      2 C           0.6227   -0.6424    0.0000 C.ar    1  LIG1        0.2793
      3 N           1.3372   -0.2299    0.0000 N.ar    1  LIG1       -0.2169
      4 C           1.3372    0.5951    0.0000 C.ar    1  LIG1        0.0335
      5 C           0.6227    1.0076    0.0000 C.ar    1  LIG1       -0.0194
      6 C          -0.0918    0.5951    0.0000 C.ar    1  LIG1        0.0531
      7 N          -0.8062    1.0076    0.0000 N.ar    1  LIG1       -0.3605
      8 C          -1.5207    0.5951    0.0000 C.ar    1  LIG1        0.0021
      9 C          -1.5207   -0.2299    0.0000 C.ar    1  LIG1       -0.0450
     10 C          -0.8062   -0.6424    0.0000 C.ar    1  LIG1       -0.0460
     11 C          -0.0918   -0.2299    0.0000 C.ar    1  LIG1        0.0645
     12 H           2.2911    1.1459    0.0000 H       1  LIG1        0.0831
     13 H           0.6227    2.1091    0.0000 H       1  LIG1        0.0653
     14 H          -0.8062    2.0901    0.0000 H       1  LIG1        0.1653
     15 H          -2.4746    1.1459    0.0000 H       1  LIG1        0.0807
     16 H          -2.4746   -0.7807    0.0000 H       1  LIG1        0.0632
     17 H          -0.8062   -1.7439    0.0000 H       1  LIG1        0.0626
@<TRIPOS>BOND
     1     1     2    2
     2     2     3   ar
     3     3     4   ar
     4     4     5   ar
     5     5     6   ar
     6     6     7   ar
     7     7     8   ar
     8     8     9   ar
     9     9    10   ar
    10    10    11   ar
    11     2    11   ar
    12     6    11   ar
    13     4    12    1
    14     5    13    1
    15     7    14    1
    16     8    15    1
    17     9    16    1
    18    10    17    1
