@<TRIPOS>MOLECULE
O=c1ncc2cnoc2[nH]1
 13 14 0 0 0
SMALL
GASTEIGER
Energy = 0

@<TRIPOS>ATOM
      1 O          -1.7682    0.7006    0.0000 O.2     1  LIG1       -0.2446
      2 C          -1.0538    0.2881    0.0000 C.ar    1  LIG1        0.3485
      3 N          -0.3393    0.7006    0.0000 N.ar    1  LIG1       -0.2745
      4 C           0.3752    0.2881    0.0000 C.ar    1  LIG1        0.2420
      5 C           0.3752   -0.5369    0.0000 C.ar    1  LIG1        0.0769
      6 C           1.1598   -0.7919    0.0000 C.ar    1  LIG1        0.0808
      7 N           1.6447   -0.1244    0.0000 N.ar    1  LIG1       -0.0836
      8 O           1.1598    0.5430    0.0000 O.2     1  LIG1       -0.3363
      9 C          -0.3393   -0.9494    0.0000 C.ar    1  LIG1        0.0468
     10 N          -1.0538   -0.5369    0.0000 N.ar    1  LIG1       -0.2007
     11 H          -0.3393    1.7831    0.0000 H       1  LIG1        0.1734
     12 H           1.5002   -1.8395    0.0000 H       1  LIG1        0.0871
     13 H          -0.3393   -2.0509    0.0000 H       1  LIG1        0.0839
@<TRIPOS>BOND
     1     1     2    2
     2     2     3   ar
     3     3     4   ar
     4     4     5   ar
     5     5     6   ar
     6     6     7   ar
     7     7     8   ar
     8     4     8   ar
     9     5     9   ar
    10     9    10   ar
    11     2    10   ar
    12     3    11    1
    13     6    12    1
    14     9    13    1
