@<TRIPOS>MOLECULE
c1cn[nH]c1
 9 9 0 0 0
SMALL
GASTEIGER
Energy = 0

@<TRIPOS>ATOM
      1 N          -0.1882   -0.6466    0.0000 N.ar    1  LIG1       -0.2847
      2 C           0.5964   -0.3917    0.0000 C.ar    1  LIG1        0.0223
      3 C           0.5964    0.4333    0.0000 C.ar    1  LIG1       -0.0245
      4 C          -0.1882    0.6882    0.0000 C.ar    1  LIG1        0.0491
      5 N          -0.6732    0.0208    0.0000 N.ar    1  LIG1       -0.1823
      6 H          -0.5227   -1.6761    0.0000 H       1  LIG1        0.1882
      7 H           1.4875   -1.0392    0.0000 H       1  LIG1        0.0824
      8 H           1.4875    1.0808    0.0000 H       1  LIG1        0.0648
      9 H          -0.5285    1.7358    0.0000 H       1  LIG1        0.0848
@<TRIPOS>BOND
     1     1     2   ar
     2     2     3   ar
     3     3     4   ar
     4     4     5   ar
     5     1     5   ar
     6     1     6    1
     7     2     7    1
     8     3     8    1
     9     4     9    1
