@<TRIPOS>MOLECULE
Cn1ncc2oncc2c1=O
 16 17 0 0 0
SMALL
GASTEIGER
Energy = 0

@<TRIPOS>ATOM
      1 C          -1.7696   -0.5947    0.0000 C.3     1  LIG1        0.0340
      2 N          -1.0551   -0.1822    0.0000 N.ar    1  LIG1       -0.2319
      3 N          -1.0551    0.6428    0.0000 N.ar    1  LIG1       -0.1731
      4 C          -0.3407    1.0553    0.0000 C.ar    1  LIG1        0.0937
      5 C           0.3738    0.6428    0.0000 C.ar    1  LIG1        0.1921
      6 C           0.3738   -0.1822    0.0000 C.ar    1  LIG1        0.1084
      7 C           1.1584   -0.4371    0.0000 C.ar    1  LIG1        0.0831
      8 N           1.6434    0.2303    0.0000 N.ar    1  LIG1       -0.0853
      9 O           1.1584    0.8978    0.0000 O.2     1  LIG1       -0.3529
     10 C          -0.3407   -0.5947    0.0000 C.ar    1  LIG1        0.2794
     11 O          -0.3407   -1.4197    0.0000 O.2     1  LIG1       -0.2654
     12 H          -2.6364    0.1457    0.0000 H       1  LIG1        0.0474
     13 H          -1.8322   -1.2757    0.9121 H       1  LIG1        0.0474
     14 H          -1.8290   -1.2413   -0.9370 H       1  LIG1        0.0474
     15 H          -0.3407    2.1568    0.0000 H       1  LIG1        0.0886
     16 H           1.4987   -1.4847    0.0000 H       1  LIG1        0.0872
@<TRIPOS>BOND
     1     1     2    1
     2     2     3   ar
     3     3     4   ar
     4     4     5   ar
     5     5     6   ar
     6     6     7   ar
     7     7     8   ar
     8     8     9   ar
     9     5     9   ar
    10     6    10   ar
    11     2    10   ar
    12    10    11    2
    13     1    12    1
    14     1    13    1
    15     1    14    1
    16     4    15    1
    17     7    16    1
