@<TRIPOS>MOLECULE
O=c1cnc2nc[nH]c(=O)c2[nH]1
 16 17 0 0 0
SMALL
GASTEIGER
Energy = 0

@<TRIPOS>ATOM
      1 O           2.0095    0.5828    0.0000 O.2     1  LIG1       -0.2662
      2 C           1.2950    0.1703    0.0000 C.ar    1  LIG1        0.2676
      3 N           0.5806    0.5828    0.0000 N.ar    1  LIG1       -0.3141
      4 C          -0.1339    0.1703    0.0000 C.ar    1  LIG1        0.1518
      5 C          -0.1339   -0.6547    0.0000 C.ar    1  LIG1        0.1833
      6 N          -0.8484   -1.0672    0.0000 N.ar    1  LIG1       -0.2164
      7 C          -1.5628   -0.6547    0.0000 C.ar    1  LIG1        0.0985
      8 N          -1.5628    0.1703    0.0000 N.ar    1  LIG1       -0.3116
      9 C          -0.8484    0.5828    0.0000 C.ar    1  LIG1        0.2770
     10 O          -0.8484    1.4078    0.0000 O.2     1  LIG1       -0.2655
     11 N           0.5806   -1.0672    0.0000 N.ar    1  LIG1       -0.2289
     12 C           1.2950   -0.6547    0.0000 C.ar    1  LIG1        0.0943
     13 H           0.5806    1.6653    0.0000 H       1  LIG1        0.1692
     14 H          -2.5167   -1.2054    0.0000 H       1  LIG1        0.1028
     15 H          -2.5003    0.7115    0.0000 H       1  LIG1        0.1698
     16 H           2.2489   -1.2054    0.0000 H       1  LIG1        0.0886
@<TRIPOS>BOND
     1     1     2    2
     2     2     3   ar
     3     3     4   ar
     4     4     5   ar
     5     5     6   ar
     6     6     7   ar
     7     7     8   ar
     8     8     9   ar
     9     4     9   ar
    10     9    10    2
    11     5    11   ar
    12    11    12   ar
    13     2    12   ar
    14     3    13    1
    15     7    14    1
    16     8    15    1
    17    12    16    1
