@<TRIPOS>MOLECULE
Cn1cc2[nH]cccc2c1=O
 19 20 0 0 0
SMALL
GASTEIGER
Energy = 0

@<TRIPOS>ATOM
      1 C           1.9125    0.1541    0.0000 C.3     1  LIG1        0.0148
      2 N           1.0875    0.1541    0.0000 N.ar    1  LIG1       -0.3157
      3 C           0.6026    0.8215    0.0000 C.ar    1  LIG1        0.0317
      4 C          -0.1821    0.5666    0.0000 C.ar    1  LIG1        0.0681
      5 N          -0.8965    0.9791    0.0000 N.ar    1  LIG1       -0.3594
      6 C          -1.6110    0.5666    0.0000 C.ar    1  LIG1        0.0022
      7 C          -1.6110   -0.2584    0.0000 C.ar    1  LIG1       -0.0450
      8 C          -0.8965   -0.6709    0.0000 C.ar    1  LIG1       -0.0460
      9 C          -0.1821   -0.2584    0.0000 C.ar    1  LIG1        0.0642
     10 C           0.6026   -0.5134    0.0000 C.ar    1  LIG1        0.2603
     11 O           0.8575   -1.2980    0.0000 O.2     1  LIG1       -0.2670
     12 H           2.2930    1.2287    0.0000 H       1  LIG1        0.0457
     13 H           2.3072   -0.4044   -0.9121 H       1  LIG1        0.0457
     14 H           2.2872   -0.3761    0.9370 H       1  LIG1        0.0457
     15 H           0.9430    1.8691    0.0000 H       1  LIG1        0.0831
     16 H          -0.8965    2.0616    0.0000 H       1  LIG1        0.1654
     17 H          -2.5649    1.1174    0.0000 H       1  LIG1        0.0807
     18 H          -2.5649   -0.8092    0.0000 H       1  LIG1        0.0632
     19 H          -0.8965   -1.7724    0.0000 H       1  LIG1        0.0626
@<TRIPOS>BOND
     1     1     2    1
     2     2     3   ar
     3     3     4   ar
     4     4     5   ar
     5     5     6   ar
     6     6     7   ar
     7     7     8   ar
     8     8     9   ar
     9     4     9   ar
    10     9    10   ar
    11     2    10   ar
    12    10    11    2
    13     1    12    1
    14     1    13    1
    15     1    14    1
    16     3    15    1
    17     5    16    1
    18     6    17    1
    19     7    18    1
    20     8    19    1
