@<TRIPOS>MOLECULE
c1nncc2cnncc12
 14 15 0 0 0
SMALL
GASTEIGER
Energy = 0

@<TRIPOS>ATOM
      1 C           0.7145   -0.8250    0.0000 C.ar    1  LIG1        0.0592
      2 N           1.4289   -0.4125    0.0000 N.ar    1  LIG1       -0.1570
      3 N           1.4289    0.4125    0.0000 N.ar    1  LIG1       -0.1570
      4 C           0.7145    0.8250    0.0000 C.ar    1  LIG1        0.0592
      5 C           0.0000    0.4125    0.0000 C.ar    1  LIG1        0.0247
      6 C          -0.7145    0.8250    0.0000 C.ar    1  LIG1        0.0592
      7 N          -1.4289    0.4125    0.0000 N.ar    1  LIG1       -0.1570
      8 N          -1.4289   -0.4125    0.0000 N.ar    1  LIG1       -0.1570
      9 C          -0.7145   -0.8250    0.0000 C.ar    1  LIG1        0.0592
     10 C           0.0000   -0.4125    0.0000 C.ar    1  LIG1        0.0247
     11 H           0.7145   -1.9265    0.0000 H       1  LIG1        0.0855
     12 H           0.7145    1.9265    0.0000 H       1  LIG1        0.0855
     13 H          -0.7145    1.9265    0.0000 H       1  LIG1        0.0855
     14 H          -0.7145   -1.9265    0.0000 H       1  LIG1        0.0855
@<TRIPOS>BOND
     1     1     2   ar
     2     2     3   ar
     3     3     4   ar
     4     4     5   ar
     5     5     6   ar
     6     6     7   ar
     7     7     8   ar
     8     8     9   ar
     9     9    10   ar
    10     1    10   ar
    11     5    10   ar
    12     1    11    1
    13     4    12    1
    14     6    13    1
    15     9    14    1
