@<TRIPOS>MOLECULE
Cn1cnc2ncnc(=O)c2n1
 17 18 0 0 0
SMALL
GASTEIGER
Energy = 0

@<TRIPOS>ATOM
      1 C           2.0439   -0.5953    0.0000 C.3     1  LIG1        0.0319
      2 N           1.3294   -0.1828    0.0000 N.ar    1  LIG1       -0.2556
      3 C           1.3294    0.6422    0.0000 C.ar    1  LIG1        0.1146
      4 N           0.6149    1.0547    0.0000 N.ar    1  LIG1       -0.2147
      5 C          -0.0996    0.6422    0.0000 C.ar    1  LIG1        0.1884
      6 N          -0.8140    1.0547    0.0000 N.ar    1  LIG1       -0.2142
      7 C          -1.5285    0.6422    0.0000 C.ar    1  LIG1        0.1224
      8 N          -1.5285   -0.1828    0.0000 N.ar    1  LIG1       -0.1956
      9 C          -0.8140   -0.5953    0.0000 C.ar    1  LIG1        0.3025
     10 O          -0.8140   -1.4203    0.0000 O.2     1  LIG1       -0.2633
     11 C          -0.0996   -0.1828    0.0000 C.ar    1  LIG1        0.1940
     12 N           0.6149   -0.5953    0.0000 N.ar    1  LIG1       -0.1614
     13 H           2.9107    0.1451    0.0000 H       1  LIG1        0.0473
     14 H           2.1065   -1.2763   -0.9121 H       1  LIG1        0.0473
     15 H           2.1033   -1.2419    0.9370 H       1  LIG1        0.0473
     16 H           2.2833    1.1930    0.0000 H       1  LIG1        0.1044
     17 H          -2.4824    1.1930    0.0000 H       1  LIG1        0.1049
@<TRIPOS>BOND
     1     1     2    1
     2     2     3   ar
     3     3     4   ar
     4     4     5   ar
     5     5     6   ar
     6     6     7   ar
     7     7     8   ar
     8     8     9   ar
     9     9    10    2
    10     9    11   ar
    11     5    11   ar
    12    11    12   ar
    13     2    12   ar
    14     1    13    1
    15     1    14    1
    16     1    15    1
    17     3    16    1
    18     7    17    1
