@<TRIPOS>MOLECULE
O=c1nc2cc[nH]n2c(=O)[nH]1
 15 16 0 0 0
SMALL
GASTEIGER
Energy = 0

@<TRIPOS>ATOM
      1 O           1.6989   -0.9231    0.0000 O.2     1  LIG1       -0.2445
      2 C           0.9844   -0.5106    0.0000 C.ar    1  LIG1        0.3516
      3 N           0.9844    0.3144    0.0000 N.ar    1  LIG1       -0.2571
      4 C           0.2699    0.7269    0.0000 C.ar    1  LIG1        0.3510
      5 O           0.2699    1.5519    0.0000 O.2     1  LIG1       -0.2445
      6 N          -0.4445    0.3144    0.0000 N.ar    1  LIG1       -0.1863
      7 N          -1.2292    0.5693    0.0000 N.ar    1  LIG1       -0.2948
      8 C          -1.7141   -0.0981    0.0000 C.ar    1  LIG1        0.0230
      9 C          -1.2292   -0.7656    0.0000 C.ar    1  LIG1        0.0003
     10 C          -0.4445   -0.5106    0.0000 C.ar    1  LIG1        0.1639
     11 N           0.2699   -0.9231    0.0000 N.ar    1  LIG1       -0.1737
     12 H           1.9219    0.8557    0.0000 H       1  LIG1        0.1750
     13 H          -1.5637    1.5988    0.0000 H       1  LIG1        0.1868
     14 H          -2.8156   -0.0981    0.0000 H       1  LIG1        0.0824
     15 H          -1.5696   -1.8132    0.0000 H       1  LIG1        0.0670
@<TRIPOS>BOND
     1     1     2    2
     2     2     3   ar
     3     3     4   ar
     4     4     5    2
     5     4     6   ar
     6     6     7   ar
     7     7     8   ar
     8     8     9   ar
     9     9    10   ar
    10     6    10   ar
    11    10    11   ar
    12     2    11   ar
    13     3    12    1
    14     7    13    1
    15     8    14    1
    16     9    15    1
