@<TRIPOS>MOLECULE
c1cnc2cnncc2n1
 14 15 0 0 0
SMALL
GASTEIGER
Energy = 0

@<TRIPOS>ATOM
      1 C           1.4512   -0.4125    0.0000 C.ar    1  LIG1        0.0464
      2 C           1.4512    0.4125    0.0000 C.ar    1  LIG1        0.0464
      3 N           0.7367    0.8250    0.0000 N.ar    1  LIG1       -0.2503
      4 C           0.0223    0.4125    0.0000 C.ar    1  LIG1        0.1104
      5 C          -0.6922    0.8250    0.0000 C.ar    1  LIG1        0.0774
      6 N          -1.4067    0.4125    0.0000 N.ar    1  LIG1       -0.1554
      7 N          -1.4067   -0.4125    0.0000 N.ar    1  LIG1       -0.1554
      8 C          -0.6922   -0.8250    0.0000 C.ar    1  LIG1        0.0774
      9 C           0.0223   -0.4125    0.0000 C.ar    1  LIG1        0.1104
     10 N           0.7367   -0.8250    0.0000 N.ar    1  LIG1       -0.2503
     11 H           2.4051   -0.9633    0.0000 H       1  LIG1        0.0845
     12 H           2.4051    0.9633    0.0000 H       1  LIG1        0.0845
     13 H          -0.6922    1.9265    0.0000 H       1  LIG1        0.0870
     14 H          -0.6922   -1.9265    0.0000 H       1  LIG1        0.0870
@<TRIPOS>BOND
     1     1     2   ar
     2     2     3   ar
     3     3     4   ar
     4     4     5   ar
     5     5     6   ar
     6     6     7   ar
     7     7     8   ar
     8     8     9   ar
     9     4     9   ar
    10     9    10   ar
    11     1    10   ar
    12     1    11    1
    13     2    12    1
    14     5    13    1
    15     8    14    1
