@<TRIPOS>MOLECULE
O=c1ccn2ccsc2c1
 15 16 0 0 0
SMALL
GASTEIGER
Energy = 0

@<TRIPOS>ATOM
      1 O           1.8974   -0.6487    0.0000 O.2     1  LIG1       -0.2878
      2 C           1.1830   -0.2362    0.0000 C.ar    1  LIG1        0.1828
      3 C           1.1830    0.5888    0.0000 C.ar    1  LIG1        0.0017
      4 C           0.4685    1.0013    0.0000 C.ar    1  LIG1        0.0139
      5 N          -0.2460    0.5888    0.0000 N.ar    1  LIG1       -0.3168
      6 C          -1.0306    0.8437    0.0000 C.ar    1  LIG1        0.0168
      7 C          -1.5155    0.1763    0.0000 C.ar    1  LIG1       -0.0059
      8 S          -1.0306   -0.4912    0.0000 S.2     1  LIG1       -0.0776
      9 C          -0.2460   -0.2362    0.0000 C.ar    1  LIG1        0.0878
     10 C           0.4685   -0.6487    0.0000 C.ar    1  LIG1        0.0158
     11 H           2.1369    1.1396    0.0000 H       1  LIG1        0.0670
     12 H           0.4685    2.1028    0.0000 H       1  LIG1        0.0814
     13 H          -1.3710    1.8913    0.0000 H       1  LIG1        0.0818
     14 H          -2.6170    0.1763    0.0000 H       1  LIG1        0.0709
     15 H           0.4685   -1.7502    0.0000 H       1  LIG1        0.0682
@<TRIPOS>BOND
     1     1     2    2
     2     2     3   ar
     3     3     4   ar
     4     4     5   ar
     5     5     6   ar
     6     6     7   ar
     7     7     8   ar
     8     8     9   ar
     9     5     9   ar
    10     9    10   ar
    11     2    10   ar
    12     3    11    1
    13     4    12    1
    14     6    13    1
    15     7    14    1
    16    10    15    1
