@<TRIPOS>MOLECULE
c1nnnc2cnnnc12
 12 13 0 0 0
SMALL
GASTEIGER
Energy = 0

@<TRIPOS>ATOM
      1 C           0.7145   -0.8250    0.0000 C.ar    1  LIG1        0.0809
      2 N           1.4289   -0.4125    0.0000 N.ar    1  LIG1       -0.1355
      3 N           1.4289    0.4125    0.0000 N.ar    1  LIG1       -0.0426
      4 N           0.7145    0.8250    0.0000 N.ar    1  LIG1       -0.1261
      5 C           0.0000    0.4125    0.0000 C.ar    1  LIG1        0.1362
      6 C          -0.7145    0.8250    0.0000 C.ar    1  LIG1        0.0809
      7 N          -1.4289    0.4125    0.0000 N.ar    1  LIG1       -0.1355
      8 N          -1.4289   -0.4125    0.0000 N.ar    1  LIG1       -0.0426
      9 N          -0.7145   -0.8250    0.0000 N.ar    1  LIG1       -0.1261
     10 C           0.0000   -0.4125    0.0000 C.ar    1  LIG1        0.1362
     11 H           0.7145   -1.9265    0.0000 H       1  LIG1        0.0872
     12 H          -0.7145    1.9265    0.0000 H       1  LIG1        0.0872
@<TRIPOS>BOND
     1     1     2   ar
     2     2     3   ar
     3     3     4   ar
     4     4     5   ar
     5     5     6   ar
     6     6     7   ar
     7     7     8   ar
     8     8     9   ar
     9     9    10   ar
    10     1    10   ar
    11     5    10   ar
    12     1    11    1
    13     6    12    1
