@<TRIPOS>MOLECULE
c1cc2sccn2n1
 12 13 0 0 0
SMALL
GASTEIGER
Energy = 0

@<TRIPOS>ATOM
      1 S           0.6667   -0.5740    0.0000 S.2     1  LIG1       -0.0761
      2 C           1.1516    0.0935    0.0000 C.ar    1  LIG1       -0.0042
      3 C           0.6667    0.7609    0.0000 C.ar    1  LIG1        0.0369
      4 N          -0.1180    0.5060    0.0000 N.ar    1  LIG1       -0.2327
      5 N          -0.9026    0.7609    0.0000 N.ar    1  LIG1       -0.1743
      6 C          -1.3875    0.0935    0.0000 C.ar    1  LIG1        0.0509
      7 C          -0.9026   -0.5740    0.0000 C.ar    1  LIG1       -0.0097
      8 C          -0.1180   -0.3190    0.0000 C.ar    1  LIG1        0.1040
      9 H           2.2531    0.0935    0.0000 H       1  LIG1        0.0709
     10 H           1.0071    1.8085    0.0000 H       1  LIG1        0.0836
     11 H          -2.4890    0.0935    0.0000 H       1  LIG1        0.0848
     12 H          -1.2430   -1.6216    0.0000 H       1  LIG1        0.0660
@<TRIPOS>BOND
     1     1     2   ar
     2     2     3   ar
     3     3     4   ar
     4     4     5   ar
     5     5     6   ar
     6     6     7   ar
     7     7     8   ar
     8     1     8   ar
     9     4     8   ar
    10     2     9    1
    11     3    10    1
    12     6    11    1
    13     7    12    1
