@<TRIPOS>MOLECULE
Cn1c(=O)oc2ncccc12
 17 18 0 0 0
SMALL
GASTEIGER
Energy = 0

@<TRIPOS>ATOM
      1 C           0.8183   -1.3517    0.0000 C.3     1  LIG1        0.0184
      2 N           0.5634   -0.5671    0.0000 N.ar    1  LIG1       -0.2757
      3 C           1.0483    0.1004    0.0000 C.ar    1  LIG1        0.4223
      4 O           1.8733    0.1004    0.0000 O.2     1  LIG1       -0.2226
      5 O           0.5634    0.7678    0.0000 O.2     1  LIG1       -0.3887
      6 C          -0.2212    0.5129    0.0000 C.ar    1  LIG1        0.2493
      7 N          -0.9357    0.9254    0.0000 N.ar    1  LIG1       -0.2191
      8 C          -1.6502    0.5129    0.0000 C.ar    1  LIG1        0.0315
      9 C          -1.6502   -0.3121    0.0000 C.ar    1  LIG1       -0.0414
     10 C          -0.9357   -0.7246    0.0000 C.ar    1  LIG1       -0.0314
     11 C          -0.2212   -0.3121    0.0000 C.ar    1  LIG1        0.1096
     12 H           1.9579   -1.3816    0.0000 H       1  LIG1        0.0458
     13 H           0.4091   -1.8996   -0.9121 H       1  LIG1        0.0458
     14 H           0.4298   -1.8719    0.9370 H       1  LIG1        0.0458
     15 H          -2.6041    1.0637    0.0000 H       1  LIG1        0.0831
     16 H          -2.6041   -0.8629    0.0000 H       1  LIG1        0.0633
     17 H          -0.9357   -1.8261    0.0000 H       1  LIG1        0.0640
@<TRIPOS>BOND
     1     1     2    1
     2     2     3   ar
     3     3     4    2
     4     3     5   ar
     5     5     6   ar
     6     6     7   ar
     7     7     8   ar
     8     8     9   ar
     9     9    10   ar
    10    10    11   ar
    11     2    11   ar
    12     6    11   ar
    13     1    12    1
    14     1    13    1
    15     1    14    1
    16     8    15    1
    17     9    16    1
    18    10    17    1
