@<TRIPOS>MOLECULE
Cn1nnc2cncn2c1=O
 16 17 0 0 0
SMALL
GASTEIGER
Energy = 0

@<TRIPOS>ATOM
      1 C           1.7384   -0.5821    0.0000 C.3     1  LIG1        0.0370
      2 N           1.0240   -0.1696    0.0000 N.ar    1  LIG1       -0.1987
      3 N           1.0240    0.6554    0.0000 N.ar    1  LIG1       -0.0597
      4 N           0.3095    1.0679    0.0000 N.ar    1  LIG1       -0.1110
      5 C          -0.4050    0.6554    0.0000 C.ar    1  LIG1        0.1846
      6 C          -1.1896    0.9103    0.0000 C.ar    1  LIG1        0.0740
      7 N          -1.6745    0.2429    0.0000 N.ar    1  LIG1       -0.2413
      8 C          -1.1896   -0.4245    0.0000 C.ar    1  LIG1        0.1062
      9 N          -0.4050   -0.1696    0.0000 N.ar    1  LIG1       -0.2325
     10 C           0.3095   -0.5821    0.0000 C.ar    1  LIG1        0.3532
     11 O           0.3095   -1.4071    0.0000 O.2     1  LIG1       -0.2443
     12 H           2.6053    0.1582    0.0000 H       1  LIG1        0.0475
     13 H           1.8009   -1.2631   -0.9121 H       1  LIG1        0.0475
     14 H           1.7978   -1.2287    0.9370 H       1  LIG1        0.0475
     15 H          -1.5300    1.9579    0.0000 H       1  LIG1        0.0868
     16 H          -1.5300   -1.4721    0.0000 H       1  LIG1        0.1034
@<TRIPOS>BOND
     1     1     2    1
     2     2     3   ar
     3     3     4   ar
     4     4     5   ar
     5     5     6   ar
     6     6     7   ar
     7     7     8   ar
     8     8     9   ar
     9     5     9   ar
    10     9    10   ar
    11     2    10   ar
    12    10    11    2
    13     1    12    1
    14     1    13    1
    15     1    14    1
    16     6    15    1
    17     8    16    1
