@<TRIPOS>MOLECULE
Cn1ncc2cn[nH]c12
 15 16 0 0 0
SMALL
GASTEIGER
Energy = 0

@<TRIPOS>ATOM
      1 C           0.9320   -1.2789    0.0000 C.3     1  LIG1        0.0324
      2 N           0.6771   -0.4942    0.0000 N.ar    1  LIG1       -0.2499
      3 N           1.1620    0.1732    0.0000 N.ar    1  LIG1       -0.1774
      4 C           0.6771    0.8406    0.0000 C.ar    1  LIG1        0.0602
      5 C          -0.1076    0.5857    0.0000 C.ar    1  LIG1        0.0577
      6 C          -0.1076   -0.2393    0.0000 C.ar    1  LIG1        0.1538
      7 N          -0.8922   -0.4942    0.0000 N.ar    1  LIG1       -0.2604
      8 N          -1.3771    0.1732    0.0000 N.ar    1  LIG1       -0.1798
      9 C          -0.8922    0.8406    0.0000 C.ar    1  LIG1        0.0600
     10 H           2.0716   -1.3088    0.0000 H       1  LIG1        0.0473
     11 H           0.5228   -1.8268   -0.9121 H       1  LIG1        0.0473
     12 H           0.5435   -1.7991    0.9370 H       1  LIG1        0.0473
     13 H           1.0175    1.8882    0.0000 H       1  LIG1        0.0855
     14 H          -1.2267   -1.5237    0.0000 H       1  LIG1        0.1905
     15 H          -1.2326    1.8882    0.0000 H       1  LIG1        0.0855
@<TRIPOS>BOND
     1     1     2    1
     2     2     3   ar
     3     3     4   ar
     4     4     5   ar
     5     5     6   ar
     6     2     6   ar
     7     6     7   ar
     8     7     8   ar
     9     8     9   ar
    10     5     9   ar
    11     1    10    1
    12     1    11    1
    13     1    12    1
    14     4    13    1
    15     7    14    1
    16     9    15    1
