@<TRIPOS>MOLECULE
O=c1nccc2cc[nH]cc12
 17 18 0 0 0
SMALL
GASTEIGER
Energy = 0

@<TRIPOS>ATOM
      1 O           0.6329   -1.4498    0.0000 O.2     1  LIG1       -0.2652
      2 C           0.6329   -0.6248    0.0000 C.ar    1  LIG1        0.2793
      3 N           1.3473   -0.2123    0.0000 N.ar    1  LIG1       -0.2169
      4 C           1.3473    0.6127    0.0000 C.ar    1  LIG1        0.0321
      5 C           0.6329    1.0252    0.0000 C.ar    1  LIG1       -0.0355
      6 C          -0.0816    0.6127    0.0000 C.ar    1  LIG1       -0.0085
      7 C          -0.7961    1.0252    0.0000 C.ar    1  LIG1       -0.0378
      8 C          -1.5105    0.6127    0.0000 C.ar    1  LIG1        0.0022
      9 N          -1.5105   -0.2123    0.0000 N.ar    1  LIG1       -0.3663
     10 C          -0.7961   -0.6248    0.0000 C.ar    1  LIG1        0.0146
     11 C          -0.0816   -0.2123    0.0000 C.ar    1  LIG1        0.0643
     12 H           2.3012    1.1634    0.0000 H       1  LIG1        0.0831
     13 H           0.6329    2.1267    0.0000 H       1  LIG1        0.0639
     14 H          -0.7961    2.1267    0.0000 H       1  LIG1        0.0638
     15 H          -2.4644    1.1634    0.0000 H       1  LIG1        0.0807
     16 H          -2.4480   -0.7535    0.0000 H       1  LIG1        0.1648
     17 H          -0.7961   -1.7263    0.0000 H       1  LIG1        0.0815
@<TRIPOS>BOND
     1     1     2    2
     2     2     3   ar
     3     3     4   ar
     4     4     5   ar
     5     5     6   ar
     6     6     7   ar
     7     7     8   ar
     8     8     9   ar
     9     9    10   ar
    10    10    11   ar
    11     2    11   ar
    12     6    11   ar
    13     4    12    1
    14     5    13    1
    15     7    14    1
    16     8    15    1
    17     9    16    1
    18    10    17    1
