@<TRIPOS>MOLECULE
Cn1ccc(=O)c2cnoc12
 17 18 0 0 0
SMALL
GASTEIGER
Energy = 0

@<TRIPOS>ATOM
      1 C          -0.4843   -1.6658    0.0000 C.3     1  LIG1        0.0147
      2 N          -0.4843   -0.8408    0.0000 N.ar    1  LIG1       -0.3190
      3 C          -1.1988   -0.4283    0.0000 C.ar    1  LIG1        0.0112
      4 C          -1.1988    0.3967    0.0000 C.ar    1  LIG1        0.0021
      5 C          -0.4843    0.8092    0.0000 C.ar    1  LIG1        0.1941
      6 O          -0.4843    1.6342    0.0000 O.2     1  LIG1       -0.2870
      7 C           0.2302    0.3967    0.0000 C.ar    1  LIG1        0.1054
      8 C           0.2302   -0.4283    0.0000 C.ar    1  LIG1        0.2428
      9 O           1.0148   -0.6832    0.0000 O.2     1  LIG1       -0.3361
     10 N           1.4997   -0.0158    0.0000 N.ar    1  LIG1       -0.0835
     11 C           1.0148    0.6517    0.0000 C.ar    1  LIG1        0.0831
     12 H          -1.5589   -2.0463    0.0000 H       1  LIG1        0.0457
     13 H           0.0742   -2.0605    0.9121 H       1  LIG1        0.0457
     14 H           0.0459   -2.0405   -0.9370 H       1  LIG1        0.0457
     15 H          -2.1527   -0.9791    0.0000 H       1  LIG1        0.0811
     16 H          -2.1527    0.9475    0.0000 H       1  LIG1        0.0670
     17 H           1.3552    1.6993    0.0000 H       1  LIG1        0.0872
@<TRIPOS>BOND
     1     1     2    1
     2     2     3   ar
     3     3     4   ar
     4     4     5   ar
     5     5     6    2
     6     5     7   ar
     7     7     8   ar
     8     2     8   ar
     9     8     9   ar
    10     9    10   ar
    11    10    11   ar
    12     7    11   ar
    13     1    12    1
    14     1    13    1
    15     1    14    1
    16     3    15    1
    17     4    16    1
    18    11    17    1
