@<TRIPOS>MOLECULE
c1cc2cnnnc2[nH]1
 13 14 0 0 0
SMALL
GASTEIGER
Energy = 0

@<TRIPOS>ATOM
      1 N           0.9824   -0.6418    0.0000 N.ar    1  LIG1       -0.3444
      2 C           1.4673    0.0257    0.0000 C.ar    1  LIG1        0.0042
      3 C           0.9824    0.6931    0.0000 C.ar    1  LIG1       -0.0335
      4 C           0.1978    0.4382    0.0000 C.ar    1  LIG1        0.0403
      5 C          -0.5167    0.8507    0.0000 C.ar    1  LIG1        0.0623
      6 N          -1.2312    0.4382    0.0000 N.ar    1  LIG1       -0.1370
      7 N          -1.2312   -0.3868    0.0000 N.ar    1  LIG1       -0.0413
      8 N          -0.5167   -0.7993    0.0000 N.ar    1  LIG1       -0.1111
      9 C           0.1978   -0.3868    0.0000 C.ar    1  LIG1        0.1635
     10 H           1.3169   -1.6713    0.0000 H       1  LIG1        0.1668
     11 H           2.5688    0.0257    0.0000 H       1  LIG1        0.0807
     12 H           1.3228    1.7407    0.0000 H       1  LIG1        0.0639
     13 H          -0.5167    1.9522    0.0000 H       1  LIG1        0.0856
@<TRIPOS>BOND
     1     1     2   ar
     2     2     3   ar
     3     3     4   ar
     4     4     5   ar
     5     5     6   ar
     6     6     7   ar
     7     7     8   ar
     8     8     9   ar
     9     1     9   ar
    10     4     9   ar
    11     1    10    1
    12     2    11    1
    13     3    12    1
    14     5    13    1
