@<TRIPOS>MOLECULE
O=c1ccnn[nH]1
 10 10 0 0 0
SMALL
GASTEIGER
Energy = 0

@<TRIPOS>ATOM
      1 O          -0.0303   -1.3868    0.0000 O.2     1  LIG1       -0.2663
      2 C          -0.0303   -0.5618    0.0000 C.ar    1  LIG1        0.2674
      3 N           0.6841   -0.1493    0.0000 N.ar    1  LIG1       -0.2246
      4 N           0.6841    0.6757    0.0000 N.ar    1  LIG1       -0.0655
      5 N          -0.0303    1.0882    0.0000 N.ar    1  LIG1       -0.1394
      6 C          -0.7448    0.6757    0.0000 C.ar    1  LIG1        0.0567
      7 C          -0.7448   -0.1493    0.0000 C.ar    1  LIG1        0.0240
      8 H           1.6216   -0.6905    0.0000 H       1  LIG1        0.1938
      9 H          -1.6987    1.2265    0.0000 H       1  LIG1        0.0850
     10 H          -1.6987   -0.7001    0.0000 H       1  LIG1        0.0688
@<TRIPOS>BOND
     1     1     2    2
     2     2     3   ar
     3     3     4   ar
     4     4     5   ar
     5     5     6   ar
     6     6     7   ar
     7     2     7   ar
     8     3     8    1
     9     6     9    1
    10     7    10    1
