@<TRIPOS>MOLECULE
c1nnc2nncnc2n1
 12 13 0 0 0
SMALL
GASTEIGER
Energy = 0

@<TRIPOS>ATOM
      1 C           1.4289   -0.4250    0.0000 C.ar    1  LIG1        0.1407
      2 N           1.4289    0.4000    0.0000 N.ar    1  LIG1       -0.1355
      3 N           0.7145    0.8125    0.0000 N.ar    1  LIG1       -0.1226
      4 C           0.0000    0.4000    0.0000 C.ar    1  LIG1        0.2400
      5 N          -0.7145    0.8125    0.0000 N.ar    1  LIG1       -0.1226
      6 N          -1.4289    0.4000    0.0000 N.ar    1  LIG1       -0.1355
      7 C          -1.4289   -0.4250    0.0000 C.ar    1  LIG1        0.1407
      8 N          -0.7145   -0.8375    0.0000 N.ar    1  LIG1       -0.2113
      9 C           0.0000   -0.4250    0.0000 C.ar    1  LIG1        0.2041
     10 N           0.7145   -0.8375    0.0000 N.ar    1  LIG1       -0.2113
     11 H           2.3828   -0.9757    0.0000 H       1  LIG1        0.1066
     12 H          -2.3828   -0.9757    0.0000 H       1  LIG1        0.1066
@<TRIPOS>BOND
     1     1     2   ar
     2     2     3   ar
     3     3     4   ar
     4     4     5   ar
     5     5     6   ar
     6     6     7   ar
     7     7     8   ar
     8     8     9   ar
     9     4     9   ar
    10     9    10   ar
    11     1    10   ar
    12     1    11    1
    13     7    12    1
