@<TRIPOS>MOLECULE
c1onc2cccnc12
 13 14 0 0 0
SMALL
GASTEIGER
Energy = 0

@<TRIPOS>ATOM
      1 O           1.3745   -0.0027    0.0000 O.2     1  LIG1       -0.3602
      2 C           0.8896    0.6647    0.0000 C.ar    1  LIG1        0.1501
      3 C           0.1050    0.4098    0.0000 C.ar    1  LIG1        0.1296
      4 N          -0.6095    0.8223    0.0000 N.ar    1  LIG1       -0.2502
      5 C          -1.3239    0.4098    0.0000 C.ar    1  LIG1        0.0285
      6 C          -1.3239   -0.4152    0.0000 C.ar    1  LIG1       -0.0414
      7 C          -0.6095   -0.8277    0.0000 C.ar    1  LIG1       -0.0295
      8 C           0.1050   -0.4152    0.0000 C.ar    1  LIG1        0.1316
      9 N           0.8896   -0.6701    0.0000 N.ar    1  LIG1       -0.0768
     10 H           1.2300    1.7123    0.0000 H       1  LIG1        0.1080
     11 H          -2.2778    0.9605    0.0000 H       1  LIG1        0.0830
     12 H          -2.2778   -0.9659    0.0000 H       1  LIG1        0.0633
     13 H          -0.6095   -1.9292    0.0000 H       1  LIG1        0.0641
@<TRIPOS>BOND
     1     1     2   ar
     2     2     3   ar
     3     3     4   ar
     4     4     5   ar
     5     5     6   ar
     6     6     7   ar
     7     7     8   ar
     8     3     8   ar
     9     8     9   ar
    10     1     9   ar
    11     2    10    1
    12     5    11    1
    13     6    12    1
    14     7    13    1
