@<TRIPOS>MOLECULE
c1nc2cocc2s1
 11 12 0 0 0
SMALL
GASTEIGER
Energy = 0

@<TRIPOS>ATOM
      1 O           1.3698   -0.0987    0.0000 O.2     1  LIG1       -0.4677
      2 C           0.8848    0.5687    0.0000 C.ar    1  LIG1        0.1075
      3 C           0.1002    0.3138    0.0000 C.ar    1  LIG1        0.0766
      4 S          -0.6844    0.5687    0.0000 S.2     1  LIG1       -0.0723
      5 C          -1.1693   -0.0987    0.0000 C.ar    1  LIG1        0.0661
      6 N          -0.6844   -0.7661    0.0000 N.ar    1  LIG1       -0.2442
      7 C           0.1002   -0.5112    0.0000 C.ar    1  LIG1        0.1157
      8 C           0.8848   -0.7661    0.0000 C.ar    1  LIG1        0.1181
      9 H           1.2251    1.6163    0.0000 H       1  LIG1        0.1041
     10 H          -2.2708   -0.0987    0.0000 H       1  LIG1        0.0908
     11 H           1.2251   -1.8137    0.0000 H       1  LIG1        0.1052
@<TRIPOS>BOND
     1     1     2   ar
     2     2     3   ar
     3     3     4   ar
     4     4     5   ar
     5     5     6   ar
     6     6     7   ar
     7     3     7   ar
     8     7     8   ar
     9     1     8   ar
    10     2     9    1
    11     5    10    1
    12     8    11    1
