@<TRIPOS>MOLECULE
O=c1ncnc2nc[nH]n12
 13 14 0 0 0
SMALL
GASTEIGER
Energy = 0

@<TRIPOS>ATOM
      1 O           0.4909   -1.4531    0.0000 O.2     1  LIG1       -0.2425
      2 C           0.4909   -0.6281    0.0000 C.ar    1  LIG1        0.3715
      3 N           1.2054   -0.2156    0.0000 N.ar    1  LIG1       -0.1799
      4 C           1.2054    0.6094    0.0000 C.ar    1  LIG1        0.1253
      5 N           0.4909    1.0219    0.0000 N.ar    1  LIG1       -0.1990
      6 C          -0.2235    0.6094    0.0000 C.ar    1  LIG1        0.2568
      7 N          -1.0081    0.8643    0.0000 N.ar    1  LIG1       -0.1998
      8 C          -1.4931    0.1969    0.0000 C.ar    1  LIG1        0.1122
      9 N          -1.0081   -0.4705    0.0000 N.ar    1  LIG1       -0.2759
     10 N          -0.2235   -0.2156    0.0000 N.ar    1  LIG1       -0.1665
     11 H           2.1593    1.1602    0.0000 H       1  LIG1        0.1050
     12 H          -2.5946    0.1969    0.0000 H       1  LIG1        0.1042
     13 H          -1.3426   -1.5000    0.0000 H       1  LIG1        0.1886
@<TRIPOS>BOND
     1     1     2    2
     2     2     3   ar
     3     3     4   ar
     4     4     5   ar
     5     5     6   ar
     6     6     7   ar
     7     7     8   ar
     8     8     9   ar
     9     9    10   ar
    10     2    10   ar
    11     6    10   ar
    12     4    11    1
    13     8    12    1
    14     9    13    1
