@<TRIPOS>MOLECULE
c1nncc2[nH]nnc12
 12 13 0 0 0
SMALL
GASTEIGER
Energy = 0

@<TRIPOS>ATOM
      1 N           0.9322   -0.6674    0.0000 N.ar    1  LIG1       -0.2556
      2 N           1.4172    0.0000    0.0000 N.ar    1  LIG1       -0.0672
      3 N           0.9322    0.6674    0.0000 N.ar    1  LIG1       -0.1280
      4 C           0.1476    0.4125    0.0000 C.ar    1  LIG1        0.1337
      5 C           0.1476   -0.4125    0.0000 C.ar    1  LIG1        0.1071
      6 C          -0.5669   -0.8250    0.0000 C.ar    1  LIG1        0.0769
      7 N          -1.2813   -0.4125    0.0000 N.ar    1  LIG1       -0.1555
      8 N          -1.2813    0.4125    0.0000 N.ar    1  LIG1       -0.1554
      9 C          -0.5669    0.8250    0.0000 C.ar    1  LIG1        0.0792
     10 H           1.2667   -1.6969    0.0000 H       1  LIG1        0.1907
     11 H          -0.5669   -1.9265    0.0000 H       1  LIG1        0.0870
     12 H          -0.5669    1.9265    0.0000 H       1  LIG1        0.0871
@<TRIPOS>BOND
     1     1     2   ar
     2     2     3   ar
     3     3     4   ar
     4     4     5   ar
     5     1     5   ar
     6     5     6   ar
     7     6     7   ar
     8     7     8   ar
     9     8     9   ar
    10     4     9   ar
    11     1    10    1
    12     6    11    1
    13     9    12    1
