@<TRIPOS>MOLECULE
O=c1ncc2cccnc2[nH]1
 16 17 0 0 0
SMALL
GASTEIGER
Energy = 0

@<TRIPOS>ATOM
      1 O           1.8820    0.7147    0.0000 O.2     1  LIG1       -0.2447
      2 C           1.1675    0.3022    0.0000 C.ar    1  LIG1        0.3473
      3 N           0.4531    0.7147    0.0000 N.ar    1  LIG1       -0.2906
      4 C          -0.2614    0.3022    0.0000 C.ar    1  LIG1        0.1433
      5 N          -0.9759    0.7147    0.0000 N.ar    1  LIG1       -0.2373
      6 C          -1.6904    0.3022    0.0000 C.ar    1  LIG1        0.0299
      7 C          -1.6904   -0.5228    0.0000 C.ar    1  LIG1       -0.0428
      8 C          -0.9759   -0.9353    0.0000 C.ar    1  LIG1       -0.0482
      9 C          -0.2614   -0.5228    0.0000 C.ar    1  LIG1        0.0356
     10 C           0.4531   -0.9353    0.0000 C.ar    1  LIG1        0.0436
     11 N           1.1675   -0.5228    0.0000 N.ar    1  LIG1       -0.2008
     12 H           0.4531    1.7972    0.0000 H       1  LIG1        0.1719
     13 H          -2.6443    0.8530    0.0000 H       1  LIG1        0.0830
     14 H          -2.6443   -1.0736    0.0000 H       1  LIG1        0.0633
     15 H          -0.9759   -2.0368    0.0000 H       1  LIG1        0.0625
     16 H           0.4531   -2.0368    0.0000 H       1  LIG1        0.0838
@<TRIPOS>BOND
     1     1     2    2
     2     2     3   ar
     3     3     4   ar
     4     4     5   ar
     5     5     6   ar
     6     6     7   ar
     7     7     8   ar
     8     8     9   ar
     9     4     9   ar
    10     9    10   ar
    11    10    11   ar
    12     2    11   ar
    13     3    12    1
    14     6    13    1
    15     7    14    1
    16     8    15    1
    17    10    16    1
