@<TRIPOS>MOLECULE
c1noc2ccncc12
 13 14 0 0 0
SMALL
GASTEIGER
Energy = 0

@<TRIPOS>ATOM
      1 O           0.9102   -0.6516    0.0000 O.2     1  LIG1       -0.3546
      2 N           1.3952    0.0158    0.0000 N.ar    1  LIG1       -0.0854
      3 C           0.9102    0.6833    0.0000 C.ar    1  LIG1        0.0792
      4 C           0.1256    0.4283    0.0000 C.ar    1  LIG1        0.0591
      5 C          -0.5889    0.8408    0.0000 C.ar    1  LIG1        0.0399
      6 N          -1.3033    0.4283    0.0000 N.ar    1  LIG1       -0.2624
      7 C          -1.3033   -0.3967    0.0000 C.ar    1  LIG1        0.0312
      8 C          -0.5889   -0.8092    0.0000 C.ar    1  LIG1        0.0020
      9 C           0.1256   -0.3967    0.0000 C.ar    1  LIG1        0.1701
     10 H           1.2505    1.7309    0.0000 H       1  LIG1        0.0870
     11 H          -0.5889    1.9423    0.0000 H       1  LIG1        0.0837
     12 H          -2.2572   -0.9474    0.0000 H       1  LIG1        0.0831
     13 H          -0.5889   -1.9107    0.0000 H       1  LIG1        0.0670
@<TRIPOS>BOND
     1     1     2   ar
     2     2     3   ar
     3     3     4   ar
     4     4     5   ar
     5     5     6   ar
     6     6     7   ar
     7     7     8   ar
     8     8     9   ar
     9     1     9   ar
    10     4     9   ar
    11     3    10    1
    12     5    11    1
    13     7    12    1
    14     8    13    1
