@<TRIPOS>MOLECULE
Cn1cc2cc[nH]c(=O)c2c1
 19 20 0 0 0
SMALL
GASTEIGER
Energy = 0

@<TRIPOS>ATOM
      1 C           2.1230    0.1943    0.0000 C.3     1  LIG1        0.0114
      2 N           1.2980    0.1943    0.0000 N.ar    1  LIG1       -0.3549
      3 C           0.8131    0.8617    0.0000 C.ar    1  LIG1        0.0122
      4 C           0.0284    0.6068    0.0000 C.ar    1  LIG1        0.0062
      5 C          -0.6860    1.0193    0.0000 C.ar    1  LIG1       -0.0364
      6 C          -1.4005    0.6068    0.0000 C.ar    1  LIG1        0.0056
      7 N          -1.4005   -0.2182    0.0000 N.ar    1  LIG1       -0.3285
      8 C          -0.6860   -0.6307    0.0000 C.ar    1  LIG1        0.2579
      9 O          -0.6860   -1.4557    0.0000 O.2     1  LIG1       -0.2672
     10 C           0.0284   -0.2182    0.0000 C.ar    1  LIG1        0.0639
     11 C           0.8131   -0.4731    0.0000 C.ar    1  LIG1        0.0172
     12 H           2.5035    1.2689    0.0000 H       1  LIG1        0.0455
     13 H           2.5177   -0.3642   -0.9121 H       1  LIG1        0.0455
     14 H           2.4977   -0.3359    0.9370 H       1  LIG1        0.0455
     15 H           1.1535    1.9093    0.0000 H       1  LIG1        0.0815
     16 H          -0.6860    2.1208    0.0000 H       1  LIG1        0.0639
     17 H          -2.3544    1.1576    0.0000 H       1  LIG1        0.0808
     18 H          -2.3380   -0.7595    0.0000 H       1  LIG1        0.1683
     19 H           1.1535   -1.5207    0.0000 H       1  LIG1        0.0817
@<TRIPOS>BOND
     1     1     2    1
     2     2     3   ar
     3     3     4   ar
     4     4     5   ar
     5     5     6   ar
     6     6     7   ar
     7     7     8   ar
     8     8     9    2
     9     8    10   ar
    10     4    10   ar
    11    10    11   ar
    12     2    11   ar
    13     1    12    1
    14     1    13    1
    15     1    14    1
    16     3    15    1
    17     5    16    1
    18     6    17    1
    19     7    18    1
    20    11    19    1
