@<TRIPOS>MOLECULE
O=c1cc[nH]c2ncsc12
 14 15 0 0 0
SMALL
GASTEIGER
Energy = 0

@<TRIPOS>ATOM
      1 O          -0.6271   -1.4016    0.0000 O.2     1  LIG1       -0.2866
      2 C          -0.6271   -0.5766    0.0000 C.ar    1  LIG1        0.1975
      3 C          -1.3415   -0.1641    0.0000 C.ar    1  LIG1        0.0023
      4 C          -1.3415    0.6609    0.0000 C.ar    1  LIG1        0.0071
      5 N          -0.6271    1.0734    0.0000 N.ar    1  LIG1       -0.3452
      6 C           0.0874    0.6609    0.0000 C.ar    1  LIG1        0.1490
      7 C           0.0874   -0.1641    0.0000 C.ar    1  LIG1        0.1024
      8 S           0.8720   -0.4190    0.0000 S.2     1  LIG1       -0.0701
      9 C           1.3569    0.2484    0.0000 C.ar    1  LIG1        0.0677
     10 N           0.8720    0.9159    0.0000 N.ar    1  LIG1       -0.2298
     11 H          -2.2954   -0.7148    0.0000 H       1  LIG1        0.0671
     12 H          -2.2954    1.2116    0.0000 H       1  LIG1        0.0808
     13 H          -0.6271    2.1559    0.0000 H       1  LIG1        0.1668
     14 H           2.4584    0.2484    0.0000 H       1  LIG1        0.0908
@<TRIPOS>BOND
     1     1     2    2
     2     2     3   ar
     3     3     4   ar
     4     4     5   ar
     5     5     6   ar
     6     6     7   ar
     7     2     7   ar
     8     7     8   ar
     9     8     9   ar
    10     9    10   ar
    11     6    10   ar
    12     3    11    1
    13     4    12    1
    14     5    13    1
    15     9    14    1
