@<TRIPOS>MOLECULE
c1cc2ncc[nH]c2n1
 14 15 0 0 0
SMALL
GASTEIGER
Energy = 0

@<TRIPOS>ATOM
      1 N           0.5507   -0.8133    0.0000 N.ar    1  LIG1       -0.3432
      2 C           1.2652   -0.4008    0.0000 C.ar    1  LIG1        0.0216
      3 C           1.2652    0.4242    0.0000 C.ar    1  LIG1        0.0443
      4 N           0.5507    0.8367    0.0000 N.ar    1  LIG1       -0.2504
      5 C          -0.1637    0.4242    0.0000 C.ar    1  LIG1        0.1074
      6 C          -0.9483    0.6791    0.0000 C.ar    1  LIG1       -0.0146
      7 C          -1.4333    0.0117    0.0000 C.ar    1  LIG1        0.0321
      8 N          -0.9483   -0.6558    0.0000 N.ar    1  LIG1       -0.2359
      9 C          -0.1637   -0.4008    0.0000 C.ar    1  LIG1        0.1565
     10 H           0.5507   -1.8958    0.0000 H       1  LIG1        0.1669
     11 H           2.2191   -0.9516    0.0000 H       1  LIG1        0.0823
     12 H           2.2191    0.9750    0.0000 H       1  LIG1        0.0844
     13 H          -1.2886    1.7267    0.0000 H       1  LIG1        0.0655
     14 H          -2.5348    0.0117    0.0000 H       1  LIG1        0.0831
@<TRIPOS>BOND
     1     1     2   ar
     2     2     3   ar
     3     3     4   ar
     4     4     5   ar
     5     5     6   ar
     6     6     7   ar
     7     7     8   ar
     8     8     9   ar
     9     1     9   ar
    10     5     9   ar
    11     1    10    1
    12     2    11    1
    13     3    12    1
    14     6    13    1
    15     7    14    1
