@<TRIPOS>MOLECULE
Cn1ccc2c(=O)[nH]c(=O)[nH]c12
 19 20 0 0 0
SMALL
GASTEIGER
Energy = 0

@<TRIPOS>ATOM
      1 C           1.3770   -1.4116    0.0000 C.3     1  LIG1        0.0132
      2 N           1.1220   -0.6270    0.0000 N.ar    1  LIG1       -0.3362
      3 C           1.6070    0.0405    0.0000 C.ar    1  LIG1        0.0069
      4 C           1.1220    0.7079    0.0000 C.ar    1  LIG1       -0.0297
      5 C           0.3374    0.4530    0.0000 C.ar    1  LIG1        0.0814
      6 C           0.3374   -0.3720    0.0000 C.ar    1  LIG1        0.1273
      7 N          -0.3771   -0.7845    0.0000 N.ar    1  LIG1       -0.2933
      8 C          -1.0915   -0.3720    0.0000 C.ar    1  LIG1        0.3282
      9 O          -1.8060   -0.7845    0.0000 O.2     1  LIG1       -0.2466
     10 N          -1.0915    0.4530    0.0000 N.ar    1  LIG1       -0.2745
     11 C          -0.3771    0.8655    0.0000 C.ar    1  LIG1        0.2632
     12 O          -0.3771    1.6905    0.0000 O.2     1  LIG1       -0.2670
     13 H           2.5166   -1.4414    0.0000 H       1  LIG1        0.0456
     14 H           0.9679   -1.9596   -0.9121 H       1  LIG1        0.0456
     15 H           0.9885   -1.9319    0.9370 H       1  LIG1        0.0456
     16 H           2.7085    0.0405    0.0000 H       1  LIG1        0.0809
     17 H           1.4623    1.7555    0.0000 H       1  LIG1        0.0641
     18 H          -0.3771   -1.8670    0.0000 H       1  LIG1        0.1718
     19 H          -2.0290    0.9942    0.0000 H       1  LIG1        0.1734
@<TRIPOS>BOND
     1     1     2    1
     2     2     3   ar
     3     3     4   ar
     4     4     5   ar
     5     5     6   ar
     6     2     6   ar
     7     6     7   ar
     8     7     8   ar
     9     8     9    2
    10     8    10   ar
    11    10    11   ar
    12     5    11   ar
    13    11    12    2
    14     1    13    1
    15     1    14    1
    16     1    15    1
    17     3    16    1
    18     4    17    1
    19     7    18    1
    20    10    19    1
