@<TRIPOS>MOLECULE
Cn1ccc2cnncc12
 17 18 0 0 0
SMALL
GASTEIGER
Energy = 0

@<TRIPOS>ATOM
      1 C           1.1113   -1.3032    0.0000 C.3     1  LIG1        0.0119
      2 N           0.8563   -0.5186    0.0000 N.ar    1  LIG1       -0.3484
      3 C           1.3413    0.1489    0.0000 C.ar    1  LIG1        0.0055
      4 C           0.8563    0.8163    0.0000 C.ar    1  LIG1       -0.0349
      5 C           0.0717    0.5614    0.0000 C.ar    1  LIG1        0.0212
      6 C          -0.6427    0.9739    0.0000 C.ar    1  LIG1        0.0591
      7 N          -1.3572    0.5614    0.0000 N.ar    1  LIG1       -0.1570
      8 N          -1.3572   -0.2636    0.0000 N.ar    1  LIG1       -0.1556
      9 C          -0.6427   -0.6761    0.0000 C.ar    1  LIG1        0.0740
     10 C           0.0717   -0.2636    0.0000 C.ar    1  LIG1        0.0704
     11 H           2.2509   -1.3330    0.0000 H       1  LIG1        0.0456
     12 H           0.7022   -1.8512   -0.9121 H       1  LIG1        0.0456
     13 H           0.7228   -1.8235    0.9370 H       1  LIG1        0.0456
     14 H           2.4428    0.1489    0.0000 H       1  LIG1        0.0809
     15 H           1.1966    1.8639    0.0000 H       1  LIG1        0.0639
     16 H          -0.6427    2.0754    0.0000 H       1  LIG1        0.0855
     17 H          -0.6427   -1.7776    0.0000 H       1  LIG1        0.0869
@<TRIPOS>BOND
     1     1     2    1
     2     2     3   ar
     3     3     4   ar
     4     4     5   ar
     5     5     6   ar
     6     6     7   ar
     7     7     8   ar
     8     8     9   ar
     9     9    10   ar
    10     2    10   ar
    11     5    10   ar
    12     1    11    1
    13     1    12    1
    14     1    13    1
    15     3    14    1
    16     4    15    1
    17     6    16    1
    18     9    17    1
