@<TRIPOS>MOLECULE
Cn1cccc2ccnc12
 18 19 0 0 0
SMALL
GASTEIGER
Energy = 0

@<TRIPOS>ATOM
      1 C           0.5063   -1.4663    0.0000 C.3     1  LIG1        0.0132
      2 N           0.5063   -0.6413    0.0000 N.ar    1  LIG1       -0.3350
      3 C           1.2208   -0.2288    0.0000 C.ar    1  LIG1        0.0061
      4 C           1.2208    0.5962    0.0000 C.ar    1  LIG1       -0.0449
      5 C           0.5063    1.0087    0.0000 C.ar    1  LIG1       -0.0497
      6 C          -0.2082    0.5962    0.0000 C.ar    1  LIG1        0.0189
      7 C          -0.9928    0.8511    0.0000 C.ar    1  LIG1       -0.0329
      8 C          -1.4777    0.1837    0.0000 C.ar    1  LIG1        0.0306
      9 N          -0.9928   -0.4837    0.0000 N.ar    1  LIG1       -0.2373
     10 C          -0.2082   -0.2288    0.0000 C.ar    1  LIG1        0.1404
     11 H           1.5809   -1.8468    0.0000 H       1  LIG1        0.0456
     12 H          -0.0522   -1.8610   -0.9121 H       1  LIG1        0.0456
     13 H          -0.0239   -1.8410    0.9370 H       1  LIG1        0.0456
     14 H           2.1747   -0.7796    0.0000 H       1  LIG1        0.0809
     15 H           2.1747    1.1470    0.0000 H       1  LIG1        0.0632
     16 H           0.5063    2.1102    0.0000 H       1  LIG1        0.0625
     17 H          -1.3332    1.8987    0.0000 H       1  LIG1        0.0640
     18 H          -2.5792    0.1837    0.0000 H       1  LIG1        0.0830
@<TRIPOS>BOND
     1     1     2    1
     2     2     3   ar
     3     3     4   ar
     4     4     5   ar
     5     5     6   ar
     6     6     7   ar
     7     7     8   ar
     8     8     9   ar
     9     9    10   ar
    10     2    10   ar
    11     6    10   ar
    12     1    11    1
    13     1    12    1
    14     1    13    1
    15     3    14    1
    16     4    15    1
    17     5    16    1
    18     7    17    1
    19     8    18    1
