@<TRIPOS>MOLECULE
Cn1cc2ncncc2nc1=O
 18 19 0 0 0
SMALL
GASTEIGER
Energy = 0

@<TRIPOS>ATOM
      1 C           1.7588    0.8461    0.0000 C.3     1  LIG1        0.0162
      2 N           1.0443    0.4336    0.0000 N.ar    1  LIG1       -0.3001
      3 C           0.3299    0.8461    0.0000 C.ar    1  LIG1        0.0366
      4 C          -0.3846    0.4336    0.0000 C.ar    1  LIG1        0.1087
      5 N          -1.0991    0.8461    0.0000 N.ar    1  LIG1       -0.2324
      6 C          -1.8135    0.4336    0.0000 C.ar    1  LIG1        0.1167
      7 N          -1.8135   -0.3914    0.0000 N.ar    1  LIG1       -0.2416
      8 C          -1.0991   -0.8039    0.0000 C.ar    1  LIG1        0.0569
      9 C          -0.3846   -0.3914    0.0000 C.ar    1  LIG1        0.1141
     10 N           0.3299   -0.8039    0.0000 N.ar    1  LIG1       -0.1898
     11 C           1.0443   -0.3914    0.0000 C.ar    1  LIG1        0.3489
     12 O           1.7588   -0.8039    0.0000 O.2     1  LIG1       -0.2445
     13 H           1.5511    1.9670    0.0000 H       1  LIG1        0.0457
     14 H           2.3798    0.5598   -0.9121 H       1  LIG1        0.0457
     15 H           2.3485    0.5743    0.9370 H       1  LIG1        0.0457
     16 H           0.3299    1.9476    0.0000 H       1  LIG1        0.0833
     17 H          -2.7674    0.9843    0.0000 H       1  LIG1        0.1047
     18 H          -1.0991   -1.9054    0.0000 H       1  LIG1        0.0852
@<TRIPOS>BOND
     1     1     2    1
     2     2     3   ar
     3     3     4   ar
     4     4     5   ar
     5     5     6   ar
     6     6     7   ar
     7     7     8   ar
     8     8     9   ar
     9     4     9   ar
    10     9    10   ar
    11    10    11   ar
    12     2    11   ar
    13    11    12    2
    14     1    13    1
    15     1    14    1
    16     1    15    1
    17     3    16    1
    18     6    17    1
    19     8    18    1
