@<TRIPOS>MOLECULE
O=c1cc[nH]c2ccncc12
 17 18 0 0 0
SMALL
GASTEIGER
Energy = 0

@<TRIPOS>ATOM
      1 O           0.6431   -1.4674    0.0000 O.2     1  LIG1       -0.2871
      2 C           0.6431   -0.6424    0.0000 C.ar    1  LIG1        0.1908
      3 C           1.3575   -0.2299    0.0000 C.ar    1  LIG1        0.0017
      4 C           1.3575    0.5951    0.0000 C.ar    1  LIG1        0.0058
      5 N           0.6431    1.0076    0.0000 N.ar    1  LIG1       -0.3604
      6 C          -0.0714    0.5951    0.0000 C.ar    1  LIG1        0.0530
      7 C          -0.7859    1.0076    0.0000 C.ar    1  LIG1       -0.0195
      8 C          -1.5004    0.5951    0.0000 C.ar    1  LIG1        0.0295
      9 N          -1.5004   -0.2299    0.0000 N.ar    1  LIG1       -0.2624
     10 C          -0.7859   -0.6424    0.0000 C.ar    1  LIG1        0.0403
     11 C          -0.0714   -0.2299    0.0000 C.ar    1  LIG1        0.0630
     12 H           2.3114   -0.7806    0.0000 H       1  LIG1        0.0670
     13 H           2.3114    1.1458    0.0000 H       1  LIG1        0.0808
     14 H           0.6431    2.0901    0.0000 H       1  LIG1        0.1653
     15 H          -0.7859    2.1091    0.0000 H       1  LIG1        0.0653
     16 H          -2.4543    1.1459    0.0000 H       1  LIG1        0.0830
     17 H          -0.7859   -1.7439    0.0000 H       1  LIG1        0.0837
@<TRIPOS>BOND
     1     1     2    2
     2     2     3   ar
     3     3     4   ar
     4     4     5   ar
     5     5     6   ar
     6     6     7   ar
     7     7     8   ar
     8     8     9   ar
     9     9    10   ar
    10    10    11   ar
    11     2    11   ar
    12     6    11   ar
    13     3    12    1
    14     4    13    1
    15     5    14    1
    16     7    15    1
    17     8    16    1
    18    10    17    1
