@<TRIPOS>MOLECULE
Cn1[nH]cnc2cnc(=O)c12
 17 18 0 0 0
SMALL
GASTEIGER
Energy = 0

@<TRIPOS>ATOM
      1 C          -0.6276   -1.3455    0.0000 C.3     1  LIG1        0.0291
      2 N          -0.6276   -0.5205    0.0000 N.ar    1  LIG1       -0.2817
      3 N          -1.3421   -0.1080    0.0000 N.ar    1  LIG1       -0.2868
      4 C          -1.3421    0.7170    0.0000 C.ar    1  LIG1        0.1086
      5 N          -0.6276    1.1295    0.0000 N.ar    1  LIG1       -0.2329
      6 C           0.0868    0.7170    0.0000 C.ar    1  LIG1        0.1139
      7 C           0.0868   -0.1080    0.0000 C.ar    1  LIG1        0.1511
      8 C           0.8715   -0.3630    0.0000 C.ar    1  LIG1        0.2974
      9 O           1.1264   -1.1476    0.0000 O.2     1  LIG1       -0.2635
     10 N           1.3564    0.3045    0.0000 N.ar    1  LIG1       -0.2135
     11 C           0.8715    0.9719    0.0000 C.ar    1  LIG1        0.0592
     12 H          -1.7022   -1.7260    0.0000 H       1  LIG1        0.0472
     13 H          -0.0691   -1.7402    0.9121 H       1  LIG1        0.0472
     14 H          -0.0974   -1.7202   -0.9370 H       1  LIG1        0.0472
     15 H          -2.2796   -0.6493    0.0000 H       1  LIG1        0.1879
     16 H          -2.2960    1.2678    0.0000 H       1  LIG1        0.1040
     17 H           1.2119    2.0195    0.0000 H       1  LIG1        0.0853
@<TRIPOS>BOND
     1     1     2    1
     2     2     3   ar
     3     3     4   ar
     4     4     5   ar
     5     5     6   ar
     6     6     7   ar
     7     2     7   ar
     8     7     8   ar
     9     8     9    2
    10     8    10   ar
    11    10    11   ar
    12     6    11   ar
    13     1    12    1
    14     1    13    1
    15     1    14    1
    16     3    15    1
    17     4    16    1
    18    11    17    1
