@<TRIPOS>MOLECULE
O=c1[nH]ccn2cccc12
 16 17 0 0 0
SMALL
GASTEIGER
Energy = 0

@<TRIPOS>ATOM
      1 O           0.4672   -1.4439    0.0000 O.2     1  LIG1       -0.2656
      2 C           0.4672   -0.6189    0.0000 C.ar    1  LIG1        0.2727
      3 N           1.1816   -0.2064    0.0000 N.ar    1  LIG1       -0.3260
      4 C           1.1816    0.6186    0.0000 C.ar    1  LIG1        0.0215
      5 C           0.4672    1.0311    0.0000 C.ar    1  LIG1        0.0259
      6 N          -0.2473    0.6186    0.0000 N.ar    1  LIG1       -0.3173
      7 C          -1.0319    0.8735    0.0000 C.ar    1  LIG1        0.0100
      8 C          -1.5168    0.2061    0.0000 C.ar    1  LIG1       -0.0431
      9 C          -1.0319   -0.4613    0.0000 C.ar    1  LIG1       -0.0312
     10 C          -0.2473   -0.2064    0.0000 C.ar    1  LIG1        0.1110
     11 H           2.1191   -0.7476    0.0000 H       1  LIG1        0.1684
     12 H           2.1355    1.1693    0.0000 H       1  LIG1        0.0823
     13 H           0.4672    2.1326    0.0000 H       1  LIG1        0.0827
     14 H          -1.3723    1.9211    0.0000 H       1  LIG1        0.0813
     15 H          -2.6183    0.2061    0.0000 H       1  LIG1        0.0633
     16 H          -1.3723   -1.5089    0.0000 H       1  LIG1        0.0640
@<TRIPOS>BOND
     1     1     2    2
     2     2     3   ar
     3     3     4   ar
     4     4     5   ar
     5     5     6   ar
     6     6     7   ar
     7     7     8   ar
     8     8     9   ar
     9     9    10   ar
    10     2    10   ar
    11     6    10   ar
    12     3    11    1
    13     4    12    1
    14     5    13    1
    15     7    14    1
    16     8    15    1
    17     9    16    1
