@<TRIPOS>MOLECULE
Cn1cc2cncc2[nH]c1=O
 18 19 0 0 0
SMALL
GASTEIGER
Energy = 0

@<TRIPOS>ATOM
      1 C           1.5862    0.8540    0.0000 C.3     1  LIG1        0.0161
      2 N           0.8718    0.4415    0.0000 N.ar    1  LIG1       -0.3031
      3 C           0.1573    0.8540    0.0000 C.ar    1  LIG1        0.0196
      4 C          -0.5572    0.4415    0.0000 C.ar    1  LIG1        0.0342
      5 C          -1.3418    0.6964    0.0000 C.ar    1  LIG1        0.0382
      6 N          -1.8267    0.0290    0.0000 N.ar    1  LIG1       -0.2605
      7 C          -1.3418   -0.6385    0.0000 C.ar    1  LIG1        0.0517
      8 C          -0.5572   -0.3835    0.0000 C.ar    1  LIG1        0.0714
      9 N           0.1573   -0.7960    0.0000 N.ar    1  LIG1       -0.3058
     10 C           0.8718   -0.3835    0.0000 C.ar    1  LIG1        0.3268
     11 O           1.5862   -0.7960    0.0000 O.2     1  LIG1       -0.2466
     12 H           1.3784    1.9749    0.0000 H       1  LIG1        0.0457
     13 H           2.2072    0.5677   -0.9121 H       1  LIG1        0.0457
     14 H           2.1759    0.5822    0.9370 H       1  LIG1        0.0457
     15 H           0.1573    1.9555    0.0000 H       1  LIG1        0.0817
     16 H          -1.6822    1.7440    0.0000 H       1  LIG1        0.0837
     17 H          -1.6822   -1.6861    0.0000 H       1  LIG1        0.0851
     18 H           0.1573   -1.8785    0.0000 H       1  LIG1        0.1705
@<TRIPOS>BOND
     1     1     2    1
     2     2     3   ar
     3     3     4   ar
     4     4     5   ar
     5     5     6   ar
     6     6     7   ar
     7     7     8   ar
     8     4     8   ar
     9     8     9   ar
    10     9    10   ar
    11     2    10   ar
    12    10    11    2
    13     1    12    1
    14     1    13    1
    15     1    14    1
    16     3    15    1
    17     5    16    1
    18     7    17    1
    19     9    18    1
