@<TRIPOS>MOLECULE
c1nc2nccnc2s1
 12 13 0 0 0
SMALL
GASTEIGER
Energy = 0

@<TRIPOS>ATOM
      1 S           0.8066   -0.5776    0.0000 S.2     1  LIG1       -0.0543
      2 C           1.2915    0.0899    0.0000 C.ar    1  LIG1        0.0691
      3 N           0.8066    0.7573    0.0000 N.ar    1  LIG1       -0.2268
      4 C           0.0219    0.5024    0.0000 C.ar    1  LIG1        0.1859
      5 N          -0.6925    0.9149    0.0000 N.ar    1  LIG1       -0.2325
      6 C          -1.4070    0.5024    0.0000 C.ar    1  LIG1        0.0481
      7 C          -1.4070   -0.3226    0.0000 C.ar    1  LIG1        0.0471
      8 N          -0.6925   -0.7351    0.0000 N.ar    1  LIG1       -0.2431
      9 C           0.0219   -0.3226    0.0000 C.ar    1  LIG1        0.1465
     10 H           2.3930    0.0899    0.0000 H       1  LIG1        0.0909
     11 H          -2.3609    1.0532    0.0000 H       1  LIG1        0.0846
     12 H          -2.3609   -0.8734    0.0000 H       1  LIG1        0.0845
@<TRIPOS>BOND
     1     1     2   ar
     2     2     3   ar
     3     3     4   ar
     4     4     5   ar
     5     5     6   ar
     6     6     7   ar
     7     7     8   ar
     8     8     9   ar
     9     1     9   ar
    10     4     9   ar
    11     2    10    1
    12     6    11    1
    13     7    12    1
