@<TRIPOS>MOLECULE
Cn1cc2oncc2nc1=O
 16 17 0 0 0
SMALL
GASTEIGER
Energy = 0

@<TRIPOS>ATOM
      1 C           1.6229    0.8349    0.0000 C.3     1  LIG1        0.0163
      2 N           0.9084    0.4224    0.0000 N.ar    1  LIG1       -0.2985
      3 C           0.1939    0.8349    0.0000 C.ar    1  LIG1        0.0561
      4 C          -0.5206    0.4224    0.0000 C.ar    1  LIG1        0.2016
      5 O          -1.3052    0.6774    0.0000 O.2     1  LIG1       -0.3516
      6 N          -1.7901    0.0099    0.0000 N.ar    1  LIG1       -0.0838
      7 C          -1.3052   -0.6575    0.0000 C.ar    1  LIG1        0.0963
      8 C          -0.5206   -0.4026    0.0000 C.ar    1  LIG1        0.1366
      9 N           0.1939   -0.8151    0.0000 N.ar    1  LIG1       -0.1881
     10 C           0.9084   -0.4026    0.0000 C.ar    1  LIG1        0.3489
     11 O           1.6229   -0.8151    0.0000 O.2     1  LIG1       -0.2445
     12 H           1.4152    1.9558    0.0000 H       1  LIG1        0.0457
     13 H           2.2439    0.5486   -0.9121 H       1  LIG1        0.0457
     14 H           2.2126    0.5631    0.9370 H       1  LIG1        0.0457
     15 H           0.1939    1.9364    0.0000 H       1  LIG1        0.0849
     16 H          -1.6456   -1.7051    0.0000 H       1  LIG1        0.0886
@<TRIPOS>BOND
     1     1     2    1
     2     2     3   ar
     3     3     4   ar
     4     4     5   ar
     5     5     6   ar
     6     6     7   ar
     7     7     8   ar
     8     4     8   ar
     9     8     9   ar
    10     9    10   ar
    11     2    10   ar
    12    10    11    2
    13     1    12    1
    14     1    13    1
    15     1    14    1
    16     3    15    1
    17     7    16    1
