@<TRIPOS>MOLECULE
O=c1cc[nH]c2oncc12
 14 15 0 0 0
SMALL
GASTEIGER
Energy = 0

@<TRIPOS>ATOM
      1 O          -0.5283   -1.4827    0.0000 O.2     1  LIG1       -0.2870
      2 C          -0.5283   -0.6577    0.0000 C.ar    1  LIG1        0.1941
      3 C          -1.2428   -0.2452    0.0000 C.ar    1  LIG1        0.0019
      4 C          -1.2428    0.5798    0.0000 C.ar    1  LIG1        0.0085
      5 N          -0.5283    0.9923    0.0000 N.ar    1  LIG1       -0.3298
      6 C           0.1861    0.5798    0.0000 C.ar    1  LIG1        0.2404
      7 C           0.1861   -0.2452    0.0000 C.ar    1  LIG1        0.1052
      8 C           0.9708   -0.5002    0.0000 C.ar    1  LIG1        0.0831
      9 N           1.4557    0.1673    0.0000 N.ar    1  LIG1       -0.0835
     10 O           0.9708    0.8347    0.0000 O.2     1  LIG1       -0.3363
     11 H          -2.1967   -0.7960    0.0000 H       1  LIG1        0.0670
     12 H          -2.1967    1.1306    0.0000 H       1  LIG1        0.0809
     13 H          -0.5283    2.0748    0.0000 H       1  LIG1        0.1683
     14 H           1.3112   -1.5478    0.0000 H       1  LIG1        0.0872
@<TRIPOS>BOND
     1     1     2    2
     2     2     3   ar
     3     3     4   ar
     4     4     5   ar
     5     5     6   ar
     6     6     7   ar
     7     2     7   ar
     8     7     8   ar
     9     8     9   ar
    10     9    10   ar
    11     6    10   ar
    12     3    11    1
    13     4    12    1
    14     5    13    1
    15     8    14    1
