@<TRIPOS>MOLECULE
Cn1c(=O)ncc2cocc12
 17 18 0 0 0
SMALL
GASTEIGER
Energy = 0

@<TRIPOS>ATOM
      1 C           0.3017   -1.4151    0.0000 C.3     1  LIG1        0.0168
      2 N           0.3017   -0.5901    0.0000 N.ar    1  LIG1       -0.2921
      3 C           1.0161   -0.1776    0.0000 C.ar    1  LIG1        0.3487
      4 O           1.7306   -0.5901    0.0000 O.2     1  LIG1       -0.2445
      5 N           1.0161    0.6474    0.0000 N.ar    1  LIG1       -0.2006
      6 C           0.3017    1.0599    0.0000 C.ar    1  LIG1        0.0451
      7 C          -0.4128    0.6474    0.0000 C.ar    1  LIG1        0.0546
      8 C          -1.1974    0.9023    0.0000 C.ar    1  LIG1        0.1023
      9 O          -1.6824    0.2349    0.0000 O.2     1  LIG1       -0.4683
     10 C          -1.1974   -0.4326    0.0000 C.ar    1  LIG1        0.1159
     11 C          -0.4128   -0.1776    0.0000 C.ar    1  LIG1        0.0923
     12 H           1.3763   -1.7956    0.0000 H       1  LIG1        0.0457
     13 H          -0.2568   -1.8098   -0.9121 H       1  LIG1        0.0457
     14 H          -0.2285   -1.7898    0.9370 H       1  LIG1        0.0457
     15 H           0.3017    2.1614    0.0000 H       1  LIG1        0.0839
     16 H          -1.5377    1.9499    0.0000 H       1  LIG1        0.1036
     17 H          -1.5377   -1.4802    0.0000 H       1  LIG1        0.1051
@<TRIPOS>BOND
     1     1     2    1
     2     2     3   ar
     3     3     4    2
     4     3     5   ar
     5     5     6   ar
     6     6     7   ar
     7     7     8   ar
     8     8     9   ar
     9     9    10   ar
    10    10    11   ar
    11     2    11   ar
    12     7    11   ar
    13     1    12    1
    14     1    13    1
    15     1    14    1
    16     6    15    1
    17     8    16    1
    18    10    17    1
