@<TRIPOS>MOLECULE
c1onc2ccccc12
 14 15 0 0 0
SMALL
GASTEIGER
Energy = 0

@<TRIPOS>ATOM
      1 O           1.3639    0.0117    0.0000 O.2     1  LIG1       -0.3618
      2 C           0.8790    0.6791    0.0000 C.ar    1  LIG1        0.1319
      3 C           0.0943    0.4242    0.0000 C.ar    1  LIG1        0.0409
      4 C          -0.6201    0.8367    0.0000 C.ar    1  LIG1       -0.0494
      5 C          -1.3346    0.4242    0.0000 C.ar    1  LIG1       -0.0610
      6 C          -1.3346   -0.4008    0.0000 C.ar    1  LIG1       -0.0596
      7 C          -0.6201   -0.8133    0.0000 C.ar    1  LIG1       -0.0324
      8 C           0.0943   -0.4008    0.0000 C.ar    1  LIG1        0.1133
      9 N           0.8790   -0.6558    0.0000 N.ar    1  LIG1       -0.0784
     10 H           1.2194    1.7267    0.0000 H       1  LIG1        0.1064
     11 H          -0.6201    1.9382    0.0000 H       1  LIG1        0.0625
     12 H          -2.2885    0.9750    0.0000 H       1  LIG1        0.0618
     13 H          -2.2885   -0.9516    0.0000 H       1  LIG1        0.0618
     14 H          -0.6201   -1.9148    0.0000 H       1  LIG1        0.0640
@<TRIPOS>BOND
     1     1     2   ar
     2     2     3   ar
     3     3     4   ar
     4     4     5   ar
     5     5     6   ar
     6     6     7   ar
     7     7     8   ar
     8     3     8   ar
     9     8     9   ar
    10     1     9   ar
    11     2    10    1
    12     4    11    1
    13     5    12    1
    14     6    13    1
    15     7    14    1
