@<TRIPOS>MOLECULE
Cn1c(=O)ccc2nncnc12
 18 19 0 0 0
SMALL
GASTEIGER
Energy = 0

@<TRIPOS>ATOM
      1 C           0.4672   -1.4332    0.0000 C.3     1  LIG1        0.0167
      2 N           0.4672   -0.6082    0.0000 N.ar    1  LIG1       -0.2946
      3 C           1.1817   -0.1957    0.0000 C.ar    1  LIG1        0.2527
      4 O           1.8962   -0.6082    0.0000 O.2     1  LIG1       -0.2677
      5 C           1.1817    0.6293    0.0000 C.ar    1  LIG1        0.0052
      6 C           0.4672    1.0418    0.0000 C.ar    1  LIG1       -0.0258
      7 C          -0.2473    0.6293    0.0000 C.ar    1  LIG1        0.1287
      8 N          -0.9617    1.0418    0.0000 N.ar    1  LIG1       -0.1447
      9 N          -1.6762    0.6293    0.0000 N.ar    1  LIG1       -0.1371
     10 C          -1.6762   -0.1957    0.0000 C.ar    1  LIG1        0.1406
     11 N          -0.9617   -0.6082    0.0000 N.ar    1  LIG1       -0.2142
     12 C          -0.2473   -0.1957    0.0000 C.ar    1  LIG1        0.1651
     13 H           1.5418   -1.8137    0.0000 H       1  LIG1        0.0457
     14 H          -0.0913   -1.8279   -0.9121 H       1  LIG1        0.0457
     15 H          -0.0630   -1.8079    0.9370 H       1  LIG1        0.0457
     16 H           2.1356    1.1801    0.0000 H       1  LIG1        0.0672
     17 H           0.4672    2.1433    0.0000 H       1  LIG1        0.0642
     18 H          -2.6301   -0.7465    0.0000 H       1  LIG1        0.1066
@<TRIPOS>BOND
     1     1     2    1
     2     2     3   ar
     3     3     4    2
     4     3     5   ar
     5     5     6   ar
     6     6     7   ar
     7     7     8   ar
     8     8     9   ar
     9     9    10   ar
    10    10    11   ar
    11    11    12   ar
    12     2    12   ar
    13     7    12   ar
    14     1    13    1
    15     1    14    1
    16     1    15    1
    17     5    16    1
    18     6    17    1
    19    10    18    1
