@<TRIPOS>MOLECULE
Cn1cc2nnncc2nc1=O
 17 18 0 0 0
SMALL
GASTEIGER
Energy = 0

@<TRIPOS>ATOM
      1 C           1.7817    0.8406    0.0000 C.3     1  LIG1        0.0162
      2 N           1.0672    0.4281    0.0000 N.ar    1  LIG1       -0.3000
      3 C           0.3528    0.8406    0.0000 C.ar    1  LIG1        0.0384
      4 C          -0.3617    0.4281    0.0000 C.ar    1  LIG1        0.1309
      5 N          -1.0762    0.8406    0.0000 N.ar    1  LIG1       -0.1263
      6 N          -1.7906    0.4281    0.0000 N.ar    1  LIG1       -0.0426
      7 N          -1.7906   -0.3969    0.0000 N.ar    1  LIG1       -0.1356
      8 C          -1.0762   -0.8094    0.0000 C.ar    1  LIG1        0.0793
      9 C          -0.3617   -0.3969    0.0000 C.ar    1  LIG1        0.1176
     10 N           0.3528   -0.8094    0.0000 N.ar    1  LIG1       -0.1897
     11 C           1.0672   -0.3969    0.0000 C.ar    1  LIG1        0.3489
     12 O           1.7817   -0.8094    0.0000 O.2     1  LIG1       -0.2445
     13 H           1.5740    1.9615    0.0000 H       1  LIG1        0.0457
     14 H           2.4027    0.5543   -0.9121 H       1  LIG1        0.0457
     15 H           2.3714    0.5688    0.9370 H       1  LIG1        0.0457
     16 H           0.3528    1.9421    0.0000 H       1  LIG1        0.0833
     17 H          -1.0762   -1.9109    0.0000 H       1  LIG1        0.0871
@<TRIPOS>BOND
     1     1     2    1
     2     2     3   ar
     3     3     4   ar
     4     4     5   ar
     5     5     6   ar
     6     6     7   ar
     7     7     8   ar
     8     8     9   ar
     9     4     9   ar
    10     9    10   ar
    11    10    11   ar
    12     2    11   ar
    13    11    12    2
    14     1    13    1
    15     1    14    1
    16     1    15    1
    17     3    16    1
    18     8    17    1
