@<TRIPOS>MOLECULE
O=c1[nH]ccn2nncc12
 14 15 0 0 0
SMALL
GASTEIGER
Energy = 0

@<TRIPOS>ATOM
      1 O           0.5057   -1.4602    0.0000 O.2     1  LIG1       -0.2655
      2 C           0.5057   -0.6352    0.0000 C.ar    1  LIG1        0.2759
      3 N           1.2202   -0.2227    0.0000 N.ar    1  LIG1       -0.3259
      4 C           1.2202    0.6023    0.0000 C.ar    1  LIG1        0.0232
      5 C           0.5057    1.0148    0.0000 C.ar    1  LIG1        0.0476
      6 N          -0.2088    0.6023    0.0000 N.ar    1  LIG1       -0.2134
      7 N          -0.9934    0.8572    0.0000 N.ar    1  LIG1       -0.0606
      8 N          -1.4783    0.1898    0.0000 N.ar    1  LIG1       -0.1368
      9 C          -0.9934   -0.4777    0.0000 C.ar    1  LIG1        0.0823
     10 C          -0.2088   -0.2227    0.0000 C.ar    1  LIG1        0.1508
     11 H           2.1577   -0.7640    0.0000 H       1  LIG1        0.1684
     12 H           2.1741    1.1531    0.0000 H       1  LIG1        0.0823
     13 H           0.5057    2.1163    0.0000 H       1  LIG1        0.0845
     14 H          -1.3338   -1.5253    0.0000 H       1  LIG1        0.0872
@<TRIPOS>BOND
     1     1     2    2
     2     2     3   ar
     3     3     4   ar
     4     4     5   ar
     5     5     6   ar
     6     6     7   ar
     7     7     8   ar
     8     8     9   ar
     9     9    10   ar
    10     2    10   ar
    11     6    10   ar
    12     3    11    1
    13     4    12    1
    14     5    13    1
    15     9    14    1
