@<TRIPOS>MOLECULE
Cn1ccc2[nH]ncc12
 16 17 0 0 0
SMALL
GASTEIGER
Energy = 0

@<TRIPOS>ATOM
      1 C           0.9523   -1.2992    0.0000 C.3     1  LIG1        0.0120
      2 N           0.6974   -0.5146    0.0000 N.ar    1  LIG1       -0.3473
      3 C           1.1823    0.1529    0.0000 C.ar    1  LIG1        0.0069
      4 C           0.6974    0.8203    0.0000 C.ar    1  LIG1       -0.0187
      5 C          -0.0872    0.5654    0.0000 C.ar    1  LIG1        0.0834
      6 C          -0.0872   -0.2596    0.0000 C.ar    1  LIG1        0.0867
      7 C          -0.8719   -0.5146    0.0000 C.ar    1  LIG1        0.0732
      8 N          -1.3568    0.1529    0.0000 N.ar    1  LIG1       -0.1797
      9 N          -0.8719    0.8203    0.0000 N.ar    1  LIG1       -0.2754
     10 H           2.0919   -1.3291    0.0000 H       1  LIG1        0.0456
     11 H           0.5431   -1.8471   -0.9121 H       1  LIG1        0.0456
     12 H           0.5638   -1.8194    0.9370 H       1  LIG1        0.0456
     13 H           2.2838    0.1529    0.0000 H       1  LIG1        0.0810
     14 H           1.0378    1.8679    0.0000 H       1  LIG1        0.0654
     15 H          -1.2123   -1.5622    0.0000 H       1  LIG1        0.0869
     16 H          -1.2064    1.8498    0.0000 H       1  LIG1        0.1890
@<TRIPOS>BOND
     1     1     2    1
     2     2     3   ar
     3     3     4   ar
     4     4     5   ar
     5     5     6   ar
     6     2     6   ar
     7     6     7   ar
     8     7     8   ar
     9     8     9   ar
    10     5     9   ar
    11     1    10    1
    12     1    11    1
    13     1    12    1
    14     3    13    1
    15     4    14    1
    16     7    15    1
    17     9    16    1
