@<TRIPOS>MOLECULE
Cn1cnc2nc(=O)[nH]cc12
 17 18 0 0 0
SMALL
GASTEIGER
Energy = 0

@<TRIPOS>ATOM
      1 C           1.3196   -1.4283    0.0000 C.3     1  LIG1        0.0134
      2 N           1.0646   -0.6437    0.0000 N.ar    1  LIG1       -0.3308
      3 C           1.5495    0.0237    0.0000 C.ar    1  LIG1        0.0986
      4 N           1.0646    0.6912    0.0000 N.ar    1  LIG1       -0.2162
      5 C           0.2800    0.4362    0.0000 C.ar    1  LIG1        0.1844
      6 N          -0.4345    0.8487    0.0000 N.ar    1  LIG1       -0.1718
      7 C          -1.1489    0.4362    0.0000 C.ar    1  LIG1        0.3478
      8 O          -1.8634    0.8487    0.0000 O.2     1  LIG1       -0.2447
      9 N          -1.1489   -0.3888    0.0000 N.ar    1  LIG1       -0.3109
     10 C          -0.4345   -0.8013    0.0000 C.ar    1  LIG1        0.0336
     11 C           0.2800   -0.3888    0.0000 C.ar    1  LIG1        0.1038
     12 H           2.4592   -1.4581    0.0000 H       1  LIG1        0.0456
     13 H           0.9105   -1.9763   -0.9121 H       1  LIG1        0.0456
     14 H           0.9311   -1.9486    0.9370 H       1  LIG1        0.0456
     15 H           2.6510    0.0237    0.0000 H       1  LIG1        0.1029
     16 H          -2.0864   -0.9300    0.0000 H       1  LIG1        0.1699
     17 H          -0.4345   -1.9028    0.0000 H       1  LIG1        0.0830
@<TRIPOS>BOND
     1     1     2    1
     2     2     3   ar
     3     3     4   ar
     4     4     5   ar
     5     5     6   ar
     6     6     7   ar
     7     7     8    2
     8     7     9   ar
     9     9    10   ar
    10    10    11   ar
    11     2    11   ar
    12     5    11   ar
    13     1    12    1
    14     1    13    1
    15     1    14    1
    16     3    15    1
    17     9    16    1
    18    10    17    1
