@<TRIPOS>MOLECULE
O=c1ncc2cccn2[nH]1
 15 16 0 0 0
SMALL
GASTEIGER
Energy = 0

@<TRIPOS>ATOM
      1 O           1.7132    0.7109    0.0000 O.2     1  LIG1       -0.2432
      2 C           0.9987    0.2984    0.0000 C.ar    1  LIG1        0.3608
      3 N           0.2843    0.7109    0.0000 N.ar    1  LIG1       -0.2427
      4 N          -0.4302    0.2984    0.0000 N.ar    1  LIG1       -0.2570
      5 C          -1.2148    0.5533    0.0000 C.ar    1  LIG1        0.0279
      6 C          -1.6998   -0.1141    0.0000 C.ar    1  LIG1       -0.0416
      7 C          -1.2148   -0.7816    0.0000 C.ar    1  LIG1       -0.0334
      8 C          -0.4302   -0.5266    0.0000 C.ar    1  LIG1        0.0816
      9 C           0.2843   -0.9391    0.0000 C.ar    1  LIG1        0.0584
     10 N           0.9987   -0.5266    0.0000 N.ar    1  LIG1       -0.1983
     11 H           0.2843    1.7934    0.0000 H       1  LIG1        0.1921
     12 H          -1.5551    1.6009    0.0000 H       1  LIG1        0.0829
     13 H          -2.8013   -0.1141    0.0000 H       1  LIG1        0.0633
     14 H          -1.5551   -1.8292    0.0000 H       1  LIG1        0.0640
     15 H           0.2843   -2.0406    0.0000 H       1  LIG1        0.0853
@<TRIPOS>BOND
     1     1     2    2
     2     2     3   ar
     3     3     4   ar
     4     4     5   ar
     5     5     6   ar
     6     6     7   ar
     7     7     8   ar
     8     4     8   ar
     9     8     9   ar
    10     9    10   ar
    11     2    10   ar
    12     3    11    1
    13     5    12    1
    14     6    13    1
    15     7    14    1
    16     9    15    1
