@<TRIPOS>MOLECULE
Cn1c(=O)[nH]c2cnccc12
 18 19 0 0 0
SMALL
GASTEIGER
Energy = 0

@<TRIPOS>ATOM
      1 C           0.8363   -1.3351    0.0000 C.3     1  LIG1        0.0167
      2 N           0.5813   -0.5505    0.0000 N.ar    1  LIG1       -0.2951
      3 C           1.0663    0.1169    0.0000 C.ar    1  LIG1        0.3274
      4 O           1.8913    0.1169    0.0000 O.2     1  LIG1       -0.2465
      5 N           0.5813    0.7844    0.0000 N.ar    1  LIG1       -0.3047
      6 C          -0.2033    0.5294    0.0000 C.ar    1  LIG1        0.0853
      7 C          -0.9178    0.9419    0.0000 C.ar    1  LIG1        0.0530
      8 N          -1.6322    0.5294    0.0000 N.ar    1  LIG1       -0.2611
      9 C          -1.6322   -0.2956    0.0000 C.ar    1  LIG1        0.0296
     10 C          -0.9178   -0.7081    0.0000 C.ar    1  LIG1       -0.0179
     11 C          -0.2033   -0.2956    0.0000 C.ar    1  LIG1        0.0723
     12 H           1.9759   -1.3649    0.0000 H       1  LIG1        0.0457
     13 H           0.4272   -1.8831   -0.9121 H       1  LIG1        0.0457
     14 H           0.4478   -1.8554    0.9370 H       1  LIG1        0.0457
     15 H           0.9158    1.8139    0.0000 H       1  LIG1        0.1705
     16 H          -0.9178    2.0434    0.0000 H       1  LIG1        0.0851
     17 H          -2.5861   -0.8463    0.0000 H       1  LIG1        0.0830
     18 H          -0.9178   -1.8096    0.0000 H       1  LIG1        0.0654
@<TRIPOS>BOND
     1     1     2    1
     2     2     3   ar
     3     3     4    2
     4     3     5   ar
     5     5     6   ar
     6     6     7   ar
     7     7     8   ar
     8     8     9   ar
     9     9    10   ar
    10    10    11   ar
    11     2    11   ar
    12     6    11   ar
    13     1    12    1
    14     1    13    1
    15     1    14    1
    16     5    15    1
    17     7    16    1
    18     9    17    1
    19    10    18    1
