@<TRIPOS>MOLECULE
O=c1ncn2cccnc2n1
 15 16 0 0 0
SMALL
GASTEIGER
Energy = 0

@<TRIPOS>ATOM
      1 O           1.8856   -0.7220    0.0000 O.2     1  LIG1       -0.2425
      2 C           1.1711   -0.3095    0.0000 C.ar    1  LIG1        0.3721
      3 N           1.1711    0.5155    0.0000 N.ar    1  LIG1       -0.1814
      4 C           0.4567    0.9280    0.0000 C.ar    1  LIG1        0.1081
      5 N          -0.2578    0.5155    0.0000 N.ar    1  LIG1       -0.2756
      6 C          -0.9723    0.9280    0.0000 C.ar    1  LIG1        0.0154
      7 C          -1.6867    0.5155    0.0000 C.ar    1  LIG1       -0.0269
      8 C          -1.6867   -0.3095    0.0000 C.ar    1  LIG1        0.0328
      9 N          -0.9723   -0.7220    0.0000 N.ar    1  LIG1       -0.2201
     10 C          -0.2578   -0.3095    0.0000 C.ar    1  LIG1        0.2403
     11 N           0.4567   -0.7220    0.0000 N.ar    1  LIG1       -0.1550
     12 H           0.4567    2.0295    0.0000 H       1  LIG1        0.1035
     13 H          -0.9723    2.0295    0.0000 H       1  LIG1        0.0814
     14 H          -2.6406    1.0662    0.0000 H       1  LIG1        0.0647
     15 H          -2.6406   -0.8602    0.0000 H       1  LIG1        0.0831
@<TRIPOS>BOND
     1     1     2    2
     2     2     3   ar
     3     3     4   ar
     4     4     5   ar
     5     5     6   ar
     6     6     7   ar
     7     7     8   ar
     8     8     9   ar
     9     9    10   ar
    10     5    10   ar
    11    10    11   ar
    12     2    11   ar
    13     4    12    1
    14     6    13    1
    15     7    14    1
    16     8    15    1
