@<TRIPOS>MOLECULE
c1noc2cccnc12
 13 14 0 0 0
SMALL
GASTEIGER
Energy = 0

@<TRIPOS>ATOM
      1 O           0.8979   -0.6587    0.0000 O.2     1  LIG1       -0.3531
      2 N           1.3829    0.0087    0.0000 N.ar    1  LIG1       -0.0839
      3 C           0.8979    0.6762    0.0000 C.ar    1  LIG1        0.0960
      4 C           0.1133    0.4212    0.0000 C.ar    1  LIG1        0.1297
      5 N          -0.6011    0.8337    0.0000 N.ar    1  LIG1       -0.2502
      6 C          -1.3156    0.4212    0.0000 C.ar    1  LIG1        0.0285
      7 C          -1.3156   -0.4038    0.0000 C.ar    1  LIG1       -0.0400
      8 C          -0.6011   -0.8163    0.0000 C.ar    1  LIG1       -0.0131
      9 C           0.1133   -0.4038    0.0000 C.ar    1  LIG1        0.1854
     10 H           1.2382    1.7238    0.0000 H       1  LIG1        0.0886
     11 H          -2.2695    0.9720    0.0000 H       1  LIG1        0.0830
     12 H          -2.2695   -0.9546    0.0000 H       1  LIG1        0.0634
     13 H          -0.6011   -1.9178    0.0000 H       1  LIG1        0.0656
@<TRIPOS>BOND
     1     1     2   ar
     2     2     3   ar
     3     3     4   ar
     4     4     5   ar
     5     5     6   ar
     6     6     7   ar
     7     7     8   ar
     8     8     9   ar
     9     1     9   ar
    10     4     9   ar
    11     3    10    1
    12     6    11    1
    13     7    12    1
    14     8    13    1
