@<TRIPOS>MOLECULE
c1nncs1
 7 7 0 0 0
SMALL
GASTEIGER
Energy = 0

@<TRIPOS>ATOM
      1 S          -0.1735   -0.5339    0.0000 S.2     1  LIG1       -0.0621
      2 C           0.6111   -0.2790    0.0000 C.ar    1  LIG1        0.0884
      3 N           0.6111    0.5460    0.0000 N.ar    1  LIG1       -0.1500
      4 N          -0.1735    0.8010    0.0000 N.ar    1  LIG1       -0.1500
      5 C          -0.6584    0.1335    0.0000 C.ar    1  LIG1        0.0884
      6 H           1.5022   -0.9265    0.0000 H       1  LIG1        0.0926
      7 H          -1.7599    0.1335    0.0000 H       1  LIG1        0.0926
@<TRIPOS>BOND
     1     1     2   ar
     2     2     3   ar
     3     3     4   ar
     4     4     5   ar
     5     1     5   ar
     6     2     6    1
     7     5     7    1
