@<TRIPOS>MOLECULE
c1cc2cn[nH]c2[nH]1
 13 14 0 0 0
SMALL
GASTEIGER
Energy = 0

@<TRIPOS>ATOM
      1 N           0.8094   -0.6413    0.0000 N.ar    1  LIG1       -0.3462
      2 C           1.2944    0.0261    0.0000 C.ar    1  LIG1        0.0042
      3 C           0.8094    0.6935    0.0000 C.ar    1  LIG1       -0.0336
      4 C           0.0248    0.4386    0.0000 C.ar    1  LIG1        0.0378
      5 C           0.0248   -0.3864    0.0000 C.ar    1  LIG1        0.1337
      6 N          -0.7598   -0.6413    0.0000 N.ar    1  LIG1       -0.2617
      7 N          -1.2447    0.0261    0.0000 N.ar    1  LIG1       -0.1799
      8 C          -0.7598    0.6935    0.0000 C.ar    1  LIG1        0.0584
      9 H           1.1439   -1.6708    0.0000 H       1  LIG1        0.1667
     10 H           2.3959    0.0261    0.0000 H       1  LIG1        0.0807
     11 H           1.1497    1.7411    0.0000 H       1  LIG1        0.0639
     12 H          -1.0943   -1.6708    0.0000 H       1  LIG1        0.1905
     13 H          -1.1002    1.7411    0.0000 H       1  LIG1        0.0854
@<TRIPOS>BOND
     1     1     2   ar
     2     2     3   ar
     3     3     4   ar
     4     4     5   ar
     5     1     5   ar
     6     5     6   ar
     7     6     7   ar
     8     7     8   ar
     9     4     8   ar
    10     1     9    1
    11     2    10    1
    12     3    11    1
    13     6    12    1
    14     8    13    1
