@<TRIPOS>MOLECULE
Cn1ccc2ccncc12
 18 19 0 0 0
SMALL
GASTEIGER
Energy = 0

@<TRIPOS>ATOM
      1 C           1.0895   -1.2942    0.0000 C.3     1  LIG1        0.0119
      2 N           0.8345   -0.5095    0.0000 N.ar    1  LIG1       -0.3485
      3 C           1.3194    0.1579    0.0000 C.ar    1  LIG1        0.0054
      4 C           0.8345    0.8253    0.0000 C.ar    1  LIG1       -0.0364
      5 C           0.0499    0.5704    0.0000 C.ar    1  LIG1        0.0028
      6 C          -0.6646    0.9829    0.0000 C.ar    1  LIG1       -0.0344
      7 C          -1.3790    0.5704    0.0000 C.ar    1  LIG1        0.0282
      8 N          -1.3790   -0.2546    0.0000 N.ar    1  LIG1       -0.2612
      9 C          -0.6646   -0.6671    0.0000 C.ar    1  LIG1        0.0516
     10 C           0.0499   -0.2546    0.0000 C.ar    1  LIG1        0.0672
     11 H           2.2291   -1.3240    0.0000 H       1  LIG1        0.0456
     12 H           0.6804   -1.8421   -0.9121 H       1  LIG1        0.0456
     13 H           0.7010   -1.8145    0.9370 H       1  LIG1        0.0456
     14 H           2.4209    0.1579    0.0000 H       1  LIG1        0.0809
     15 H           1.1749    1.8729    0.0000 H       1  LIG1        0.0639
     16 H          -0.6646    2.0844    0.0000 H       1  LIG1        0.0639
     17 H          -2.3329    1.1211    0.0000 H       1  LIG1        0.0830
     18 H          -0.6646   -1.7686    0.0000 H       1  LIG1        0.0851
@<TRIPOS>BOND
     1     1     2    1
     2     2     3   ar
     3     3     4   ar
     4     4     5   ar
     5     5     6   ar
     6     6     7   ar
     7     7     8   ar
     8     8     9   ar
     9     9    10   ar
    10     2    10   ar
    11     5    10   ar
    12     1    11    1
    13     1    12    1
    14     1    13    1
    15     3    14    1
    16     4    15    1
    17     6    16    1
    18     7    17    1
    19     9    18    1
