@<TRIPOS>MOLECULE
Cn1ncc2cnccc12
 17 18 0 0 0
SMALL
GASTEIGER
Energy = 0

@<TRIPOS>ATOM
      1 C           1.0686   -1.3097    0.0000 C.3     1  LIG1        0.0309
      2 N           0.8136   -0.5251    0.0000 N.ar    1  LIG1       -0.2667
      3 N           1.2986    0.1423    0.0000 N.ar    1  LIG1       -0.1787
      4 C           0.8136    0.8098    0.0000 C.ar    1  LIG1        0.0586
      5 C           0.0290    0.5548    0.0000 C.ar    1  LIG1        0.0378
      6 C          -0.6855    0.9673    0.0000 C.ar    1  LIG1        0.0382
      7 N          -1.3999    0.5548    0.0000 N.ar    1  LIG1       -0.2625
      8 C          -1.3999   -0.2702    0.0000 C.ar    1  LIG1        0.0296
      9 C          -0.6855   -0.6827    0.0000 C.ar    1  LIG1       -0.0179
     10 C           0.0290   -0.2702    0.0000 C.ar    1  LIG1        0.0715
     11 H           2.2082   -1.3395    0.0000 H       1  LIG1        0.0473
     12 H           0.6595   -1.8577   -0.9121 H       1  LIG1        0.0473
     13 H           0.6801   -1.8300    0.9370 H       1  LIG1        0.0473
     14 H           1.1539    1.8574    0.0000 H       1  LIG1        0.0854
     15 H          -0.6855    2.0688    0.0000 H       1  LIG1        0.0837
     16 H          -2.3538   -0.8209    0.0000 H       1  LIG1        0.0830
     17 H          -0.6855   -1.7842    0.0000 H       1  LIG1        0.0654
@<TRIPOS>BOND
     1     1     2    1
     2     2     3   ar
     3     3     4   ar
     4     4     5   ar
     5     5     6   ar
     6     6     7   ar
     7     7     8   ar
     8     8     9   ar
     9     9    10   ar
    10     2    10   ar
    11     5    10   ar
    12     1    11    1
    13     1    12    1
    14     1    13    1
    15     4    14    1
    16     6    15    1
    17     8    16    1
    18     9    17    1
