@<TRIPOS>MOLECULE
O=c1[nH]cc[nH]1
 10 10 0 0 0
SMALL
GASTEIGER
Energy = 0

@<TRIPOS>ATOM
      1 O          -1.2108   -0.0000    0.0000 O.2     1  LIG1       -0.2468
      2 C          -0.3858   -0.0000    0.0000 C.ar    1  LIG1        0.3241
      3 N           0.0991   -0.6674    0.0000 N.ar    1  LIG1       -0.3132
      4 C           0.8837   -0.4125    0.0000 C.ar    1  LIG1        0.0224
      5 C           0.8837    0.4125    0.0000 C.ar    1  LIG1        0.0224
      6 N           0.0991    0.6674    0.0000 N.ar    1  LIG1       -0.3132
      7 H          -0.2354   -1.6969    0.0000 H       1  LIG1        0.1698
      8 H           1.7748   -1.0600    0.0000 H       1  LIG1        0.0823
      9 H           1.7748    1.0600    0.0000 H       1  LIG1        0.0823
     10 H          -0.2354    1.6969    0.0000 H       1  LIG1        0.1698
@<TRIPOS>BOND
     1     1     2    2
     2     2     3   ar
     3     3     4   ar
     4     4     5   ar
     5     5     6   ar
     6     2     6   ar
     7     3     7    1
     8     4     8    1
     9     5     9    1
    10     6    10    1
