@<TRIPOS>MOLECULE
Cn1ccc2[nH][nH]c(=O)c2c1=O
 19 20 0 0 0
SMALL
GASTEIGER
Energy = 0

@<TRIPOS>ATOM
      1 C          -1.9114   -0.4516    0.0000 C.3     1  LIG1        0.0147
      2 N          -1.1969   -0.0391    0.0000 N.ar    1  LIG1       -0.3175
      3 C          -1.1969    0.7859    0.0000 C.ar    1  LIG1        0.0096
      4 C          -0.4824    1.1984    0.0000 C.ar    1  LIG1       -0.0198
      5 C           0.2321    0.7859    0.0000 C.ar    1  LIG1        0.0741
      6 C           0.2321   -0.0391    0.0000 C.ar    1  LIG1        0.1295
      7 C           1.0167   -0.2940    0.0000 C.ar    1  LIG1        0.2775
      8 O           1.2716   -1.0787    0.0000 O.2     1  LIG1       -0.2656
      9 N           1.5016    0.3734    0.0000 N.ar    1  LIG1       -0.2650
     10 N           1.0167    1.0408    0.0000 N.ar    1  LIG1       -0.2963
     11 C          -0.4824   -0.4516    0.0000 C.ar    1  LIG1        0.2656
     12 O          -0.4824   -1.2766    0.0000 O.2     1  LIG1       -0.2668
     13 H          -2.7782    0.2888    0.0000 H       1  LIG1        0.0457
     14 H          -1.9740   -1.1326    0.9121 H       1  LIG1        0.0457
     15 H          -1.9708   -1.0982   -0.9370 H       1  LIG1        0.0457
     16 H          -2.1508    1.3367    0.0000 H       1  LIG1        0.0810
     17 H          -0.4824    2.2999    0.0000 H       1  LIG1        0.0653
     18 H           2.5841    0.3734    0.0000 H       1  LIG1        0.1899
     19 H           1.3512    2.0703    0.0000 H       1  LIG1        0.1868
@<TRIPOS>BOND
     1     1     2    1
     2     2     3   ar
     3     3     4   ar
     4     4     5   ar
     5     5     6   ar
     6     6     7   ar
     7     7     8    2
     8     7     9   ar
     9     9    10   ar
    10     5    10   ar
    11     6    11   ar
    12     2    11   ar
    13    11    12    2
    14     1    13    1
    15     1    14    1
    16     1    15    1
    17     3    16    1
    18     4    17    1
    19     9    18    1
    20    10    19    1
