@<TRIPOS>MOLECULE
Cn1c(=O)cc2[nH]ccn2c1=O
 19 20 0 0 0
SMALL
GASTEIGER
Energy = 0

@<TRIPOS>ATOM
      1 C           1.5732   -0.6768    0.0000 C.3     1  LIG1        0.0196
      2 N           0.8587   -0.2643    0.0000 N.ar    1  LIG1       -0.2636
      3 C           0.8587    0.5607    0.0000 C.ar    1  LIG1        0.2583
      4 O           1.5732    0.9732    0.0000 O.2     1  LIG1       -0.2674
      5 C           0.1443    0.9732    0.0000 C.ar    1  LIG1        0.0441
      6 C          -0.5702    0.5607    0.0000 C.ar    1  LIG1        0.1244
      7 N          -1.3548    0.8156    0.0000 N.ar    1  LIG1       -0.3457
      8 C          -1.8398    0.1482    0.0000 C.ar    1  LIG1        0.0201
      9 C          -1.3548   -0.5193    0.0000 C.ar    1  LIG1        0.0319
     10 N          -0.5702   -0.2643    0.0000 N.ar    1  LIG1       -0.2532
     11 C           0.1443   -0.6768    0.0000 C.ar    1  LIG1        0.3373
     12 O           0.1443   -1.5018    0.0000 O.2     1  LIG1       -0.2458
     13 H           2.4400    0.0636    0.0000 H       1  LIG1        0.0458
     14 H           1.6358   -1.3578   -0.9121 H       1  LIG1        0.0458
     15 H           1.6326   -1.3234    0.9370 H       1  LIG1        0.0458
     16 H           0.1443    2.0747    0.0000 H       1  LIG1        0.0708
     17 H          -1.6893    1.8451    0.0000 H       1  LIG1        0.1668
     18 H          -2.9413    0.1482    0.0000 H       1  LIG1        0.0822
     19 H          -1.6951   -1.5669    0.0000 H       1  LIG1        0.0829
@<TRIPOS>BOND
     1     1     2    1
     2     2     3   ar
     3     3     4    2
     4     3     5   ar
     5     5     6   ar
     6     6     7   ar
     7     7     8   ar
     8     8     9   ar
     9     9    10   ar
    10     6    10   ar
    11    10    11   ar
    12     2    11   ar
    13    11    12    2
    14     1    13    1
    15     1    14    1
    16     1    15    1
    17     5    16    1
    18     7    17    1
    19     8    18    1
    20     9    19    1
