@<TRIPOS>MOLECULE
O=c1[nH]ccc2cncn12
 15 16 0 0 0
SMALL
GASTEIGER
Energy = 0

@<TRIPOS>ATOM
      1 O           0.4905   -1.4344    0.0000 O.2     1  LIG1       -0.2461
      2 C           0.4905   -0.6094    0.0000 C.ar    1  LIG1        0.3323
      3 N           1.2049   -0.1969    0.0000 N.ar    1  LIG1       -0.3140
      4 C           1.2049    0.6281    0.0000 C.ar    1  LIG1        0.0084
      5 C           0.4905    1.0406    0.0000 C.ar    1  LIG1       -0.0201
      6 C          -0.2240    0.6281    0.0000 C.ar    1  LIG1        0.0717
      7 C          -1.0086    0.8830    0.0000 C.ar    1  LIG1        0.0533
      8 N          -1.4936    0.2156    0.0000 N.ar    1  LIG1       -0.2430
      9 C          -1.0086   -0.4518    0.0000 C.ar    1  LIG1        0.1046
     10 N          -0.2240   -0.1969    0.0000 N.ar    1  LIG1       -0.2515
     11 H           2.1424   -0.7381    0.0000 H       1  LIG1        0.1698
     12 H           2.1588    1.1788    0.0000 H       1  LIG1        0.0809
     13 H           0.4905    2.1421    0.0000 H       1  LIG1        0.0653
     14 H          -1.3489    1.9306    0.0000 H       1  LIG1        0.0851
     15 H          -1.3489   -1.4994    0.0000 H       1  LIG1        0.1033
@<TRIPOS>BOND
     1     1     2    2
     2     2     3   ar
     3     3     4   ar
     4     4     5   ar
     5     5     6   ar
     6     6     7   ar
     7     7     8   ar
     8     8     9   ar
     9     9    10   ar
    10     2    10   ar
    11     6    10   ar
    12     3    11    1
    13     4    12    1
    14     5    13    1
    15     7    14    1
    16     9    15    1
