@<TRIPOS>MOLECULE
O=c1cnn2cccnc2n1
 15 16 0 0 0
SMALL
GASTEIGER
Energy = 0

@<TRIPOS>ATOM
      1 O           1.8955   -0.7277    0.0000 O.2     1  LIG1       -0.2641
      2 C           1.1810   -0.3152    0.0000 C.ar    1  LIG1        0.2932
      3 C           1.1810    0.5098    0.0000 C.ar    1  LIG1        0.1146
      4 N           0.4666    0.9223    0.0000 N.ar    1  LIG1       -0.1668
      5 N          -0.2479    0.5098    0.0000 N.ar    1  LIG1       -0.2054
      6 C          -0.9624    0.9223    0.0000 C.ar    1  LIG1        0.0343
      7 C          -1.6768    0.5098    0.0000 C.ar    1  LIG1       -0.0252
      8 C          -1.6768   -0.3152    0.0000 C.ar    1  LIG1        0.0329
      9 N          -0.9624   -0.7277    0.0000 N.ar    1  LIG1       -0.2190
     10 C          -0.2479   -0.3152    0.0000 C.ar    1  LIG1        0.2545
     11 N           0.4666   -0.7277    0.0000 N.ar    1  LIG1       -0.1704
     12 H           2.1349    1.0605    0.0000 H       1  LIG1        0.0904
     13 H          -0.9624    2.0238    0.0000 H       1  LIG1        0.0832
     14 H          -2.6307    1.0605    0.0000 H       1  LIG1        0.0648
     15 H          -2.6307   -0.8659    0.0000 H       1  LIG1        0.0831
@<TRIPOS>BOND
     1     1     2    2
     2     2     3   ar
     3     3     4   ar
     4     4     5   ar
     5     5     6   ar
     6     6     7   ar
     7     7     8   ar
     8     8     9   ar
     9     9    10   ar
    10     5    10   ar
    11    10    11   ar
    12     2    11   ar
    13     3    12    1
    14     6    13    1
    15     7    14    1
    16     8    15    1
