@<TRIPOS>MOLECULE
Cn1c(=O)cnc2cncnc12
 18 19 0 0 0
SMALL
GASTEIGER
Energy = 0

@<TRIPOS>ATOM
      1 C           0.4489   -1.4332    0.0000 C.3     1  LIG1        0.0167
      2 N           0.4489   -0.6082    0.0000 N.ar    1  LIG1       -0.2934
      3 C           1.1634   -0.1957    0.0000 C.ar    1  LIG1        0.2708
      4 O           1.8779   -0.6082    0.0000 O.2     1  LIG1       -0.2660
      5 C           1.1634    0.6293    0.0000 C.ar    1  LIG1        0.0929
      6 N           0.4489    1.0418    0.0000 N.ar    1  LIG1       -0.2450
      7 C          -0.2655    0.6293    0.0000 C.ar    1  LIG1        0.1245
      8 C          -0.9800    1.0418    0.0000 C.ar    1  LIG1        0.0582
      9 N          -1.6945    0.6293    0.0000 N.ar    1  LIG1       -0.2414
     10 C          -1.6945   -0.1957    0.0000 C.ar    1  LIG1        0.1184
     11 N          -0.9800   -0.6082    0.0000 N.ar    1  LIG1       -0.2161
     12 C          -0.2655   -0.1957    0.0000 C.ar    1  LIG1        0.1648
     13 H           1.5235   -1.8137    0.0000 H       1  LIG1        0.0457
     14 H          -0.1096   -1.8279   -0.9121 H       1  LIG1        0.0457
     15 H          -0.0813   -1.8079    0.9370 H       1  LIG1        0.0457
     16 H           2.1173    1.1801    0.0000 H       1  LIG1        0.0885
     17 H          -0.9800    2.1433    0.0000 H       1  LIG1        0.0853
     18 H          -2.6484   -0.7465    0.0000 H       1  LIG1        0.1047
@<TRIPOS>BOND
     1     1     2    1
     2     2     3   ar
     3     3     4    2
     4     3     5   ar
     5     5     6   ar
     6     6     7   ar
     7     7     8   ar
     8     8     9   ar
     9     9    10   ar
    10    10    11   ar
    11    11    12   ar
    12     2    12   ar
    13     7    12   ar
    14     1    13    1
    15     1    14    1
    16     1    15    1
    17     5    16    1
    18     8    17    1
    19    10    18    1
