@<TRIPOS>MOLECULE
c1cnc2cncnc2c1
 15 16 0 0 0
SMALL
GASTEIGER
Energy = 0

@<TRIPOS>ATOM
      1 C           1.4516   -0.4190    0.0000 C.ar    1  LIG1       -0.0415
      2 C           1.4516    0.4060    0.0000 C.ar    1  LIG1        0.0284
      3 N           0.7371    0.8185    0.0000 N.ar    1  LIG1       -0.2519
      4 C           0.0226    0.4060    0.0000 C.ar    1  LIG1        0.1072
      5 C          -0.6919    0.8185    0.0000 C.ar    1  LIG1        0.0567
      6 N          -1.4063    0.4060    0.0000 N.ar    1  LIG1       -0.2416
      7 C          -1.4063   -0.4190    0.0000 C.ar    1  LIG1        0.1167
      8 N          -0.6919   -0.8315    0.0000 N.ar    1  LIG1       -0.2339
      9 C           0.0226   -0.4190    0.0000 C.ar    1  LIG1        0.0924
     10 C           0.7371   -0.8315    0.0000 C.ar    1  LIG1       -0.0327
     11 H           2.4055   -0.9698    0.0000 H       1  LIG1        0.0633
     12 H           2.4055    0.9568    0.0000 H       1  LIG1        0.0830
     13 H          -0.6919    1.9200    0.0000 H       1  LIG1        0.0852
     14 H          -2.3602   -0.9697    0.0000 H       1  LIG1        0.1047
     15 H           0.7371   -1.9330    0.0000 H       1  LIG1        0.0640
@<TRIPOS>BOND
     1     1     2   ar
     2     2     3   ar
     3     3     4   ar
     4     4     5   ar
     5     5     6   ar
     6     6     7   ar
     7     7     8   ar
     8     8     9   ar
     9     4     9   ar
    10     9    10   ar
    11     1    10   ar
    12     1    11    1
    13     2    12    1
    14     5    13    1
    15     7    14    1
    16    10    15    1
