@<TRIPOS>MOLECULE
Cn1ncn2nccc2c1=O
 17 18 0 0 0
SMALL
GASTEIGER
Energy = 0

@<TRIPOS>ATOM
      1 C           1.7360   -0.5880    0.0000 C.3     1  LIG1        0.0341
      2 N           1.0215   -0.1755    0.0000 N.ar    1  LIG1       -0.2295
      3 N           1.0215    0.6495    0.0000 N.ar    1  LIG1       -0.1569
      4 C           0.3071    1.0620    0.0000 C.ar    1  LIG1        0.1386
      5 N          -0.4074    0.6495    0.0000 N.ar    1  LIG1       -0.2147
      6 N          -1.1920    0.9045    0.0000 N.ar    1  LIG1       -0.1732
      7 C          -1.6770    0.2370    0.0000 C.ar    1  LIG1        0.0506
      8 C          -1.1920   -0.4304    0.0000 C.ar    1  LIG1       -0.0110
      9 C          -0.4074   -0.1755    0.0000 C.ar    1  LIG1        0.1342
     10 C           0.3071   -0.5880    0.0000 C.ar    1  LIG1        0.2926
     11 O           0.3071   -1.4130    0.0000 O.2     1  LIG1       -0.2639
     12 H           2.6028    0.1524    0.0000 H       1  LIG1        0.0474
     13 H           1.7986   -1.2690   -0.9121 H       1  LIG1        0.0474
     14 H           1.7954   -1.2346    0.9370 H       1  LIG1        0.0474
     15 H           0.3071    2.1635    0.0000 H       1  LIG1        0.1066
     16 H          -2.7785    0.2370    0.0000 H       1  LIG1        0.0848
     17 H          -1.5323   -1.4780    0.0000 H       1  LIG1        0.0656
@<TRIPOS>BOND
     1     1     2    1
     2     2     3   ar
     3     3     4   ar
     4     4     5   ar
     5     5     6   ar
     6     6     7   ar
     7     7     8   ar
     8     8     9   ar
     9     5     9   ar
    10     9    10   ar
    11     2    10   ar
    12    10    11    2
    13     1    12    1
    14     1    13    1
    15     1    14    1
    16     4    15    1
    17     7    16    1
    18     8    17    1
