@<TRIPOS>MOLECULE
c1cnc2nccnc2n1
 14 15 0 0 0
SMALL
GASTEIGER
Energy = 0

@<TRIPOS>ATOM
      1 C           1.4289   -0.4125    0.0000 C.ar    1  LIG1        0.0482
      2 C           1.4289    0.4125    0.0000 C.ar    1  LIG1        0.0482
      3 N           0.7145    0.8250    0.0000 N.ar    1  LIG1       -0.2316
      4 C           0.0000    0.4125    0.0000 C.ar    1  LIG1        0.1977
      5 N          -0.7145    0.8250    0.0000 N.ar    1  LIG1       -0.2316
      6 C          -1.4289    0.4125    0.0000 C.ar    1  LIG1        0.0482
      7 C          -1.4289   -0.4125    0.0000 C.ar    1  LIG1        0.0482
      8 N          -0.7145   -0.8250    0.0000 N.ar    1  LIG1       -0.2316
      9 C           0.0000   -0.4125    0.0000 C.ar    1  LIG1        0.1977
     10 N           0.7145   -0.8250    0.0000 N.ar    1  LIG1       -0.2316
     11 H           2.3828   -0.9632    0.0000 H       1  LIG1        0.0846
     12 H           2.3828    0.9632    0.0000 H       1  LIG1        0.0846
     13 H          -2.3828    0.9632    0.0000 H       1  LIG1        0.0846
     14 H          -2.3828   -0.9632    0.0000 H       1  LIG1        0.0846
@<TRIPOS>BOND
     1     1     2   ar
     2     2     3   ar
     3     3     4   ar
     4     4     5   ar
     5     5     6   ar
     6     6     7   ar
     7     7     8   ar
     8     8     9   ar
     9     4     9   ar
    10     9    10   ar
    11     1    10   ar
    12     1    11    1
    13     2    12    1
    14     6    13    1
    15     7    14    1
