@<TRIPOS>MOLECULE
O=c1cccc[nH]1
 12 12 0 0 0
SMALL
GASTEIGER
Energy = 0

@<TRIPOS>ATOM
      1 O          -0.0158   -1.3477    0.0000 O.2     1  LIG1       -0.2679
      2 C          -0.0158   -0.5227    0.0000 C.ar    1  LIG1        0.2487
      3 N           0.6986   -0.1102    0.0000 N.ar    1  LIG1       -0.3291
      4 C           0.6986    0.7148    0.0000 C.ar    1  LIG1        0.0049
      5 C          -0.0158    1.1273    0.0000 C.ar    1  LIG1       -0.0455
      6 C          -0.7303    0.7148    0.0000 C.ar    1  LIG1       -0.0553
      7 C          -0.7303   -0.1102    0.0000 C.ar    1  LIG1        0.0028
      8 H           1.6361   -0.6514    0.0000 H       1  LIG1        0.1683
      9 H           1.6525    1.2655    0.0000 H       1  LIG1        0.0808
     10 H          -0.0158    2.2288    0.0000 H       1  LIG1        0.0632
     11 H          -1.6842    1.2656    0.0000 H       1  LIG1        0.0620
     12 H          -1.6842   -0.6610    0.0000 H       1  LIG1        0.0671
@<TRIPOS>BOND
     1     1     2    2
     2     2     3   ar
     3     3     4   ar
     4     4     5   ar
     5     5     6   ar
     6     6     7   ar
     7     2     7   ar
     8     3     8    1
     9     4     9    1
    10     5    10    1
    11     6    11    1
    12     7    12    1
