@<TRIPOS>MOLECULE
Cn1cncnc1=O
 13 13 0 0 0
SMALL
GASTEIGER
Energy = 0

@<TRIPOS>ATOM
      1 C           0.2156   -1.3387    0.0000 C.3     1  LIG1        0.0175
      2 N           0.2156   -0.5137    0.0000 N.ar    1  LIG1       -0.2860
      3 C           0.9300   -0.1012    0.0000 C.ar    1  LIG1        0.1012
      4 N           0.9300    0.7238    0.0000 N.ar    1  LIG1       -0.2257
      5 C           0.2156    1.1363    0.0000 C.ar    1  LIG1        0.1230
      6 N          -0.4989    0.7238    0.0000 N.ar    1  LIG1       -0.1815
      7 C          -0.4989   -0.1012    0.0000 C.ar    1  LIG1        0.3507
      8 O          -1.2134   -0.5137    0.0000 O.2     1  LIG1       -0.2444
      9 H           1.2902   -1.7192    0.0000 H       1  LIG1        0.0457
     10 H          -0.3429   -1.7334   -0.9121 H       1  LIG1        0.0457
     11 H          -0.3146   -1.7134    0.9370 H       1  LIG1        0.0457
     12 H           1.8839   -0.6519    0.0000 H       1  LIG1        0.1030
     13 H           0.2156    2.2378    0.0000 H       1  LIG1        0.1049
@<TRIPOS>BOND
     1     1     2    1
     2     2     3   ar
     3     3     4   ar
     4     4     5   ar
     5     5     6   ar
     6     6     7   ar
     7     2     7   ar
     8     7     8    2
     9     1     9    1
    10     1    10    1
    11     1    11    1
    12     3    12    1
    13     5    13    1
