@<TRIPOS>MOLECULE
Cn1cncc2ncnc12
 16 17 0 0 0
SMALL
GASTEIGER
Energy = 0

@<TRIPOS>ATOM
      1 C           0.5028   -1.4889    0.0000 C.3     1  LIG1        0.0146
      2 N           0.5028   -0.6639    0.0000 N.ar    1  LIG1       -0.3181
      3 C           1.2172   -0.2514    0.0000 C.ar    1  LIG1        0.0972
      4 N           1.2172    0.5736    0.0000 N.ar    1  LIG1       -0.2432
      5 C           0.5028    0.9861    0.0000 C.ar    1  LIG1        0.0582
      6 C          -0.2117    0.5736    0.0000 C.ar    1  LIG1        0.1260
      7 N          -0.9963    0.8286    0.0000 N.ar    1  LIG1       -0.2308
      8 C          -1.4813    0.1611    0.0000 C.ar    1  LIG1        0.1191
      9 N          -0.9963   -0.5063    0.0000 N.ar    1  LIG1       -0.2161
     10 C          -0.2117   -0.2514    0.0000 C.ar    1  LIG1        0.1632
     11 H           1.5774   -1.8694    0.0000 H       1  LIG1        0.0457
     12 H          -0.0557   -1.8836   -0.9121 H       1  LIG1        0.0457
     13 H          -0.0274   -1.8636    0.9370 H       1  LIG1        0.0457
     14 H           2.1711   -0.8021    0.0000 H       1  LIG1        0.1029
     15 H           0.5028    2.0876    0.0000 H       1  LIG1        0.0853
     16 H          -2.5828    0.1611    0.0000 H       1  LIG1        0.1048
@<TRIPOS>BOND
     1     1     2    1
     2     2     3   ar
     3     3     4   ar
     4     4     5   ar
     5     5     6   ar
     6     6     7   ar
     7     7     8   ar
     8     8     9   ar
     9     9    10   ar
    10     2    10   ar
    11     6    10   ar
    12     1    11    1
    13     1    12    1
    14     1    13    1
    15     3    14    1
    16     5    15    1
    17     8    16    1
