@<TRIPOS>MOLECULE
c1n[nH]c2ncnnc12
 12 13 0 0 0
SMALL
GASTEIGER
Energy = 0

@<TRIPOS>ATOM
      1 N           0.9455   -0.6631    0.0000 N.ar    1  LIG1       -0.2588
      2 N           1.4304    0.0043    0.0000 N.ar    1  LIG1       -0.1783
      3 C           0.9455    0.6717    0.0000 C.ar    1  LIG1        0.0785
      4 C           0.1609    0.4168    0.0000 C.ar    1  LIG1        0.1493
      5 N          -0.5536    0.8293    0.0000 N.ar    1  LIG1       -0.1431
      6 N          -1.2681    0.4168    0.0000 N.ar    1  LIG1       -0.1370
      7 C          -1.2681   -0.4082    0.0000 C.ar    1  LIG1        0.1406
      8 N          -0.5536   -0.8207    0.0000 N.ar    1  LIG1       -0.2131
      9 C           0.1609   -0.4082    0.0000 C.ar    1  LIG1        0.1776
     10 H           1.2800   -1.6926    0.0000 H       1  LIG1        0.1906
     11 H           1.2859    1.7193    0.0000 H       1  LIG1        0.0871
     12 H          -2.2220   -0.9590    0.0000 H       1  LIG1        0.1066
@<TRIPOS>BOND
     1     1     2   ar
     2     2     3   ar
     3     3     4   ar
     4     4     5   ar
     5     5     6   ar
     6     6     7   ar
     7     7     8   ar
     8     8     9   ar
     9     1     9   ar
    10     4     9   ar
    11     1    10    1
    12     3    11    1
    13     7    12    1
