@<TRIPOS>MOLECULE
Cn1cc2ccncc2c1
 18 19 0 0 0
SMALL
GASTEIGER
Energy = 0

@<TRIPOS>ATOM
      1 C           2.0345    0.0066    0.0000 C.3     1  LIG1        0.0114
      2 N           1.2095    0.0066    0.0000 N.ar    1  LIG1       -0.3550
      3 C           0.7246    0.6741    0.0000 C.ar    1  LIG1        0.0121
      4 C          -0.0600    0.4191    0.0000 C.ar    1  LIG1        0.0025
      5 C          -0.7745    0.8316    0.0000 C.ar    1  LIG1       -0.0344
      6 C          -1.4889    0.4191    0.0000 C.ar    1  LIG1        0.0282
      7 N          -1.4889   -0.4059    0.0000 N.ar    1  LIG1       -0.2626
      8 C          -0.7745   -0.8184    0.0000 C.ar    1  LIG1        0.0367
      9 C          -0.0600   -0.4059    0.0000 C.ar    1  LIG1        0.0177
     10 C           0.7246   -0.6608    0.0000 C.ar    1  LIG1        0.0134
     11 H           2.4150    1.0812    0.0000 H       1  LIG1        0.0455
     12 H           2.4292   -0.5519   -0.9121 H       1  LIG1        0.0455
     13 H           2.4092   -0.5236    0.9370 H       1  LIG1        0.0455
     14 H           1.0650    1.7217    0.0000 H       1  LIG1        0.0815
     15 H          -0.7745    1.9331    0.0000 H       1  LIG1        0.0639
     16 H          -2.4428    0.9698    0.0000 H       1  LIG1        0.0830
     17 H          -0.7745   -1.9199    0.0000 H       1  LIG1        0.0836
     18 H           1.0650   -1.7084    0.0000 H       1  LIG1        0.0815
@<TRIPOS>BOND
     1     1     2    1
     2     2     3   ar
     3     3     4   ar
     4     4     5   ar
     5     5     6   ar
     6     6     7   ar
     7     7     8   ar
     8     8     9   ar
     9     4     9   ar
    10     9    10   ar
    11     2    10   ar
    12     1    11    1
    13     1    12    1
    14     1    13    1
    15     3    14    1
    16     5    15    1
    17     6    16    1
    18     8    17    1
    19    10    18    1
