@<TRIPOS>MOLECULE
O=c1cnc2cccnc2[nH]1
 16 17 0 0 0
SMALL
GASTEIGER
Energy = 0

@<TRIPOS>ATOM
      1 O           1.8920    0.7205    0.0000 O.2     1  LIG1       -0.2662
      2 C           1.1776    0.3080    0.0000 C.ar    1  LIG1        0.2684
      3 N           0.4631    0.7205    0.0000 N.ar    1  LIG1       -0.3045
      4 C          -0.2514    0.3080    0.0000 C.ar    1  LIG1        0.1592
      5 N          -0.9658    0.7205    0.0000 N.ar    1  LIG1       -0.2359
      6 C          -1.6803    0.3080    0.0000 C.ar    1  LIG1        0.0300
      7 C          -1.6803   -0.5170    0.0000 C.ar    1  LIG1       -0.0414
      8 C          -0.9658   -0.9295    0.0000 C.ar    1  LIG1       -0.0313
      9 C          -0.2514   -0.5170    0.0000 C.ar    1  LIG1        0.1063
     10 N           0.4631   -0.9295    0.0000 N.ar    1  LIG1       -0.2465
     11 C           1.1776   -0.5170    0.0000 C.ar    1  LIG1        0.0926
     12 H           0.4631    1.8030    0.0000 H       1  LIG1        0.1704
     13 H          -2.6342    0.8588    0.0000 H       1  LIG1        0.0830
     14 H          -2.6342   -1.0678    0.0000 H       1  LIG1        0.0633
     15 H          -0.9658   -2.0310    0.0000 H       1  LIG1        0.0640
     16 H           2.1315   -1.0678    0.0000 H       1  LIG1        0.0885
@<TRIPOS>BOND
     1     1     2    2
     2     2     3   ar
     3     3     4   ar
     4     4     5   ar
     5     5     6   ar
     6     6     7   ar
     7     7     8   ar
     8     8     9   ar
     9     4     9   ar
    10     9    10   ar
    11    10    11   ar
    12     2    11   ar
    13     3    12    1
    14     6    13    1
    15     7    14    1
    16     8    15    1
    17    11    16    1
