@<TRIPOS>MOLECULE
Cn1ccn2c(=O)ccn2c1=O
 19 20 0 0 0
SMALL
GASTEIGER
Energy = 0

@<TRIPOS>ATOM
      1 C          -1.8854   -0.7371    0.0000 C.3     1  LIG1        0.0162
      2 N          -1.1710   -0.3246    0.0000 N.ar    1  LIG1       -0.3008
      3 C          -1.1710    0.5004    0.0000 C.ar    1  LIG1        0.0272
      4 C          -0.4565    0.9129    0.0000 C.ar    1  LIG1        0.0478
      5 N           0.2580    0.5004    0.0000 N.ar    1  LIG1       -0.2149
      6 N           0.2580   -0.3246    0.0000 N.ar    1  LIG1       -0.2023
      7 C           1.0426   -0.5795    0.0000 C.ar    1  LIG1        0.0381
      8 C           1.5275    0.0879    0.0000 C.ar    1  LIG1        0.0229
      9 C           1.0426    0.7554    0.0000 C.ar    1  LIG1        0.2717
     10 O           1.2976    1.5400    0.0000 O.2     1  LIG1       -0.2659
     11 C          -0.4565   -0.7371    0.0000 C.ar    1  LIG1        0.3481
     12 O          -0.4565   -1.5621    0.0000 O.2     1  LIG1       -0.2445
     13 H          -2.7523    0.0032    0.0000 H       1  LIG1        0.0457
     14 H          -1.9479   -1.4181    0.9121 H       1  LIG1        0.0457
     15 H          -1.9448   -1.3837   -0.9370 H       1  LIG1        0.0457
     16 H          -2.1249    1.0512    0.0000 H       1  LIG1        0.0826
     17 H          -0.4565    2.0144    0.0000 H       1  LIG1        0.0845
     18 H           1.3830   -1.6271    0.0000 H       1  LIG1        0.0833
     19 H           2.6290    0.0879    0.0000 H       1  LIG1        0.0687
@<TRIPOS>BOND
     1     1     2    1
     2     2     3   ar
     3     3     4   ar
     4     4     5   ar
     5     5     6   ar
     6     6     7   ar
     7     7     8   ar
     8     8     9   ar
     9     5     9   ar
    10     9    10    2
    11     6    11   ar
    12     2    11   ar
    13    11    12    2
    14     1    13    1
    15     1    14    1
    16     1    15    1
    17     3    16    1
    18     4    17    1
    19     7    18    1
    20     8    19    1
