@<TRIPOS>MOLECULE
O=c1cc2nccnn2cn1
 15 16 0 0 0
SMALL
GASTEIGER
Energy = 0

@<TRIPOS>ATOM
      1 O           1.9054    0.7448    0.0000 O.2     1  LIG1       -0.2657
      2 C           1.1909    0.3323    0.0000 C.ar    1  LIG1        0.2751
      3 C           0.4765    0.7448    0.0000 C.ar    1  LIG1        0.0489
      4 C          -0.2380    0.3323    0.0000 C.ar    1  LIG1        0.1608
      5 N          -0.9525    0.7448    0.0000 N.ar    1  LIG1       -0.2344
      6 C          -1.6669    0.3323    0.0000 C.ar    1  LIG1        0.0497
      7 C          -1.6669   -0.4927    0.0000 C.ar    1  LIG1        0.0665
      8 N          -0.9525   -0.9052    0.0000 N.ar    1  LIG1       -0.1706
      9 N          -0.2380   -0.4927    0.0000 N.ar    1  LIG1       -0.2034
     10 C           0.4765   -0.9052    0.0000 C.ar    1  LIG1        0.1236
     11 N           1.1909   -0.4927    0.0000 N.ar    1  LIG1       -0.1974
     12 H           0.4765    1.8463    0.0000 H       1  LIG1        0.0710
     13 H          -2.6208    0.8830    0.0000 H       1  LIG1        0.0846
     14 H          -2.6208   -1.0434    0.0000 H       1  LIG1        0.0863
     15 H           0.4765   -2.0067    0.0000 H       1  LIG1        0.1049
@<TRIPOS>BOND
     1     1     2    2
     2     2     3   ar
     3     3     4   ar
     4     4     5   ar
     5     5     6   ar
     6     6     7   ar
     7     7     8   ar
     8     8     9   ar
     9     4     9   ar
    10     9    10   ar
    11    10    11   ar
    12     2    11   ar
    13     3    12    1
    14     6    13    1
    15     7    14    1
    16    10    15    1
