@<TRIPOS>MOLECULE
Cn1c(=O)ncc2ccncc12
 19 20 0 0 0
SMALL
GASTEIGER
Energy = 0

@<TRIPOS>ATOM
      1 C           0.4270   -1.4251    0.0000 C.3     1  LIG1        0.0168
      2 N           0.4270   -0.6001    0.0000 N.ar    1  LIG1       -0.2936
      3 C           1.1415   -0.1876    0.0000 C.ar    1  LIG1        0.3487
      4 O           1.8559   -0.6001    0.0000 O.2     1  LIG1       -0.2445
      5 N           1.1415    0.6374    0.0000 N.ar    1  LIG1       -0.2007
      6 C           0.4270    1.0499    0.0000 C.ar    1  LIG1        0.0422
      7 C          -0.2875    0.6374    0.0000 C.ar    1  LIG1        0.0197
      8 C          -1.0019    1.0499    0.0000 C.ar    1  LIG1       -0.0330
      9 C          -1.7164    0.6374    0.0000 C.ar    1  LIG1        0.0283
     10 N          -1.7164   -0.1876    0.0000 N.ar    1  LIG1       -0.2612
     11 C          -1.0019   -0.6001    0.0000 C.ar    1  LIG1        0.0518
     12 C          -0.2875   -0.1876    0.0000 C.ar    1  LIG1        0.0726
     13 H           1.5016   -1.8056    0.0000 H       1  LIG1        0.0457
     14 H          -0.1315   -1.8198   -0.9121 H       1  LIG1        0.0457
     15 H          -0.1032   -1.7998    0.9370 H       1  LIG1        0.0457
     16 H           0.4270    2.1514    0.0000 H       1  LIG1        0.0838
     17 H          -1.0019    2.1514    0.0000 H       1  LIG1        0.0640
     18 H          -2.6703    1.1882    0.0000 H       1  LIG1        0.0830
     19 H          -1.0019   -1.7016    0.0000 H       1  LIG1        0.0851
@<TRIPOS>BOND
     1     1     2    1
     2     2     3   ar
     3     3     4    2
     4     3     5   ar
     5     5     6   ar
     6     6     7   ar
     7     7     8   ar
     8     8     9   ar
     9     9    10   ar
    10    10    11   ar
    11    11    12   ar
    12     2    12   ar
    13     7    12   ar
    14     1    13    1
    15     1    14    1
    16     1    15    1
    17     6    16    1
    18     8    17    1
    19     9    18    1
    20    11    19    1
