@<TRIPOS>MOLECULE
c1ncn2ccncc12
 14 15 0 0 0
SMALL
GASTEIGER
Energy = 0

@<TRIPOS>ATOM
      1 C           1.2737    0.4125    0.0000 C.ar    1  LIG1        0.0441
      2 C           0.5592    0.8250    0.0000 C.ar    1  LIG1        0.0293
      3 N          -0.1552    0.4125    0.0000 N.ar    1  LIG1       -0.3030
      4 C          -0.9399    0.6674    0.0000 C.ar    1  LIG1        0.1005
      5 N          -1.4248   -0.0000    0.0000 N.ar    1  LIG1       -0.2431
      6 C          -0.9399   -0.6674    0.0000 C.ar    1  LIG1        0.0546
      7 C          -0.1552   -0.4125    0.0000 C.ar    1  LIG1        0.0836
      8 C           0.5592   -0.8250    0.0000 C.ar    1  LIG1        0.0529
      9 N           1.2737   -0.4125    0.0000 N.ar    1  LIG1       -0.2597
     10 H           2.2276    0.9633    0.0000 H       1  LIG1        0.0844
     11 H           0.5592    1.9265    0.0000 H       1  LIG1        0.0829
     12 H          -1.2803    1.7150    0.0000 H       1  LIG1        0.1032
     13 H          -1.2803   -1.7150    0.0000 H       1  LIG1        0.0852
     14 H           0.5592   -1.9265    0.0000 H       1  LIG1        0.0851
@<TRIPOS>BOND
     1     1     2   ar
     2     2     3   ar
     3     3     4   ar
     4     4     5   ar
     5     5     6   ar
     6     6     7   ar
     7     3     7   ar
     8     7     8   ar
     9     8     9   ar
    10     1     9   ar
    11     1    10    1
    12     2    11    1
    13     4    12    1
    14     6    13    1
    15     8    14    1
