@<TRIPOS>MOLECULE
Cn1c(=O)ccc2cc[nH]c12
 19 20 0 0 0
SMALL
GASTEIGER
Energy = 0

@<TRIPOS>ATOM
      1 C          -0.2853   -1.3931    0.0000 C.3     1  LIG1        0.0166
      2 N          -0.2853   -0.5681    0.0000 N.ar    1  LIG1       -0.2974
      3 C          -0.9998   -0.1556    0.0000 C.ar    1  LIG1        0.2525
      4 O          -1.7142   -0.5681    0.0000 O.2     1  LIG1       -0.2677
      5 C          -0.9998    0.6694    0.0000 C.ar    1  LIG1        0.0037
      6 C          -0.2853    1.0819    0.0000 C.ar    1  LIG1       -0.0460
      7 C           0.4292    0.6694    0.0000 C.ar    1  LIG1        0.0172
      8 C           0.4292   -0.1556    0.0000 C.ar    1  LIG1        0.1210
      9 N           1.2138   -0.4105    0.0000 N.ar    1  LIG1       -0.3471
     10 C           1.6987    0.2569    0.0000 C.ar    1  LIG1        0.0041
     11 C           1.2138    0.9244    0.0000 C.ar    1  LIG1       -0.0351
     12 H          -1.3599   -1.7736    0.0000 H       1  LIG1        0.0457
     13 H           0.2732   -1.7878    0.9121 H       1  LIG1        0.0457
     14 H           0.2449   -1.7678   -0.9370 H       1  LIG1        0.0457
     15 H          -1.9537    1.2202    0.0000 H       1  LIG1        0.0672
     16 H          -0.2853    2.1834    0.0000 H       1  LIG1        0.0626
     17 H           1.5483   -1.4400    0.0000 H       1  LIG1        0.1667
     18 H           2.8002    0.2569    0.0000 H       1  LIG1        0.0807
     19 H           1.5542    1.9720    0.0000 H       1  LIG1        0.0639
@<TRIPOS>BOND
     1     1     2    1
     2     2     3   ar
     3     3     4    2
     4     3     5   ar
     5     5     6   ar
     6     6     7   ar
     7     7     8   ar
     8     2     8   ar
     9     8     9   ar
    10     9    10   ar
    11    10    11   ar
    12     7    11   ar
    13     1    12    1
    14     1    13    1
    15     1    14    1
    16     5    15    1
    17     6    16    1
    18     9    17    1
    19    10    18    1
    20    11    19    1
