@<TRIPOS>MOLECULE
c1cc2occn2c1
 13 14 0 0 0
SMALL
GASTEIGER
Energy = 0

@<TRIPOS>ATOM
      1 O           0.7540   -0.6494    0.0000 O.2     1  LIG1       -0.4455
      2 C           1.2389    0.0180    0.0000 C.ar    1  LIG1        0.1108
      3 C           0.7540    0.6855    0.0000 C.ar    1  LIG1        0.0474
      4 N          -0.0307    0.4305    0.0000 N.ar    1  LIG1       -0.2913
      5 C          -0.8153    0.6855    0.0000 C.ar    1  LIG1        0.0128
      6 C          -1.3002    0.0180    0.0000 C.ar    1  LIG1       -0.0401
      7 C          -0.8153   -0.6494    0.0000 C.ar    1  LIG1        0.0003
      8 C          -0.0307   -0.3945    0.0000 C.ar    1  LIG1        0.2048
      9 H           2.3404    0.0180    0.0000 H       1  LIG1        0.1045
     10 H           1.0944    1.7331    0.0000 H       1  LIG1        0.0845
     11 H          -1.1557    1.7331    0.0000 H       1  LIG1        0.0814
     12 H          -2.4017    0.0180    0.0000 H       1  LIG1        0.0634
     13 H          -1.1557   -1.6970    0.0000 H       1  LIG1        0.0671
@<TRIPOS>BOND
     1     1     2   ar
     2     2     3   ar
     3     3     4   ar
     4     4     5   ar
     5     5     6   ar
     6     6     7   ar
     7     7     8   ar
     8     1     8   ar
     9     4     8   ar
    10     2     9    1
    11     3    10    1
    12     5    11    1
    13     6    12    1
    14     7    13    1
