@<TRIPOS>MOLECULE
Cn1ccc2ncncc12
 17 18 0 0 0
SMALL
GASTEIGER
Energy = 0

@<TRIPOS>ATOM
      1 C           1.1000   -1.3097    0.0000 C.3     1  LIG1        0.0120
      2 N           0.8450   -0.5251    0.0000 N.ar    1  LIG1       -0.3473
      3 C           1.3300    0.1423    0.0000 C.ar    1  LIG1        0.0069
      4 C           0.8450    0.8098    0.0000 C.ar    1  LIG1       -0.0180
      5 C           0.0604    0.5548    0.0000 C.ar    1  LIG1        0.0919
      6 N          -0.6541    0.9673    0.0000 N.ar    1  LIG1       -0.2339
      7 C          -1.3685    0.5548    0.0000 C.ar    1  LIG1        0.1167
      8 N          -1.3685   -0.2702    0.0000 N.ar    1  LIG1       -0.2416
      9 C          -0.6541   -0.6827    0.0000 C.ar    1  LIG1        0.0549
     10 C           0.0604   -0.2702    0.0000 C.ar    1  LIG1        0.0857
     11 H           2.2396   -1.3395    0.0000 H       1  LIG1        0.0456
     12 H           0.6909   -1.8577   -0.9121 H       1  LIG1        0.0456
     13 H           0.7115   -1.8300    0.9370 H       1  LIG1        0.0456
     14 H           2.4315    0.1423    0.0000 H       1  LIG1        0.0810
     15 H           1.1853    1.8574    0.0000 H       1  LIG1        0.0654
     16 H          -2.3224    1.1055    0.0000 H       1  LIG1        0.1047
     17 H          -0.6541   -1.7842    0.0000 H       1  LIG1        0.0852
@<TRIPOS>BOND
     1     1     2    1
     2     2     3   ar
     3     3     4   ar
     4     4     5   ar
     5     5     6   ar
     6     6     7   ar
     7     7     8   ar
     8     8     9   ar
     9     9    10   ar
    10     2    10   ar
    11     5    10   ar
    12     1    11    1
    13     1    12    1
    14     1    13    1
    15     3    14    1
    16     4    15    1
    17     7    16    1
    18     9    17    1
