@<TRIPOS>MOLECULE
c1cc2n[nH]cc2o1
 12 13 0 0 0
SMALL
GASTEIGER
Energy = 0

@<TRIPOS>ATOM
      1 N           1.2602   -0.0128    0.0000 N.ar    1  LIG1       -0.2805
      2 C           0.7753    0.6547    0.0000 C.ar    1  LIG1        0.0652
      3 C          -0.0093    0.3997    0.0000 C.ar    1  LIG1        0.1719
      4 O          -0.7939    0.6547    0.0000 O.2     1  LIG1       -0.4598
      5 C          -1.2789   -0.0128    0.0000 C.ar    1  LIG1        0.0948
      6 C          -0.7939   -0.6802    0.0000 C.ar    1  LIG1        0.0040
      7 C          -0.0093   -0.4253    0.0000 C.ar    1  LIG1        0.1304
      8 N           0.7753   -0.6802    0.0000 N.ar    1  LIG1       -0.1706
      9 H           2.3427   -0.0128    0.0000 H       1  LIG1        0.1883
     10 H           1.1157    1.7023    0.0000 H       1  LIG1        0.0861
     11 H          -2.3804   -0.0128    0.0000 H       1  LIG1        0.1030
     12 H          -1.1342   -1.7278    0.0000 H       1  LIG1        0.0671
@<TRIPOS>BOND
     1     1     2   ar
     2     2     3   ar
     3     3     4   ar
     4     4     5   ar
     5     5     6   ar
     6     6     7   ar
     7     3     7   ar
     8     7     8   ar
     9     1     8   ar
    10     1     9    1
    11     2    10    1
    12     5    11    1
    13     6    12    1
