@<TRIPOS>MOLECULE
O=c1oc2cc[nH]c2o1
 12 13 0 0 0
SMALL
GASTEIGER
Energy = 0

@<TRIPOS>ATOM
      1 O           1.7815   -0.0109    0.0000 O.2     1  LIG1       -0.2020
      2 C           0.9565   -0.0109    0.0000 C.ar    1  LIG1        0.5225
      3 O           0.4716    0.6565    0.0000 O.2     1  LIG1       -0.3740
      4 C          -0.3130    0.4016    0.0000 C.ar    1  LIG1        0.2485
      5 C          -0.3130   -0.4234    0.0000 C.ar    1  LIG1        0.1963
      6 O           0.4716   -0.6784    0.0000 O.2     1  LIG1       -0.3891
      7 C          -1.0976   -0.6784    0.0000 C.ar    1  LIG1        0.0022
      8 C          -1.5825   -0.0109    0.0000 C.ar    1  LIG1        0.0086
      9 N          -1.0976    0.6565    0.0000 N.ar    1  LIG1       -0.3292
     10 H          -1.4380   -1.7260    0.0000 H       1  LIG1        0.0671
     11 H          -2.6840   -0.0109    0.0000 H       1  LIG1        0.0809
     12 H          -1.4321    1.6860    0.0000 H       1  LIG1        0.1683
@<TRIPOS>BOND
     1     1     2    2
     2     2     3   ar
     3     3     4   ar
     4     4     5   ar
     5     5     6   ar
     6     2     6   ar
     7     5     7   ar
     8     7     8   ar
     9     8     9   ar
    10     4     9   ar
    11     7    10    1
    12     8    11    1
    13     9    12    1
