@<TRIPOS>MOLECULE
O=c1ccc2cnc(=O)[nH]c2[nH]1
 17 18 0 0 0
SMALL
GASTEIGER
Energy = 0

@<TRIPOS>ATOM
      1 O           2.1615    0.6424    0.0000 O.2     1  LIG1       -0.2679
      2 C           1.4470    0.2299    0.0000 C.ar    1  LIG1        0.2502
      3 N           0.7325    0.6424    0.0000 N.ar    1  LIG1       -0.3083
      4 C           0.0180    0.2299    0.0000 C.ar    1  LIG1        0.1239
      5 C           0.0180   -0.5951    0.0000 C.ar    1  LIG1        0.0340
      6 C           0.7325   -1.0076    0.0000 C.ar    1  LIG1       -0.0446
      7 C           1.4470   -0.5951    0.0000 C.ar    1  LIG1        0.0035
      8 C          -0.6964   -1.0076    0.0000 C.ar    1  LIG1        0.0436
      9 N          -1.4109   -0.5951    0.0000 N.ar    1  LIG1       -0.2008
     10 C          -1.4109    0.2299    0.0000 C.ar    1  LIG1        0.3473
     11 O          -2.1254    0.6424    0.0000 O.2     1  LIG1       -0.2447
     12 N          -0.6964    0.6424    0.0000 N.ar    1  LIG1       -0.2920
     13 H           0.7325    1.7249    0.0000 H       1  LIG1        0.1703
     14 H           0.7325   -2.1091    0.0000 H       1  LIG1        0.0627
     15 H           2.4009   -1.1459    0.0000 H       1  LIG1        0.0672
     16 H          -0.6964   -2.1091    0.0000 H       1  LIG1        0.0838
     17 H          -0.6964    1.7249    0.0000 H       1  LIG1        0.1719
@<TRIPOS>BOND
     1     1     2    2
     2     2     3   ar
     3     3     4   ar
     4     4     5   ar
     5     5     6   ar
     6     6     7   ar
     7     2     7   ar
     8     5     8   ar
     9     8     9   ar
    10     9    10   ar
    11    10    11    2
    12    10    12   ar
    13     4    12   ar
    14     3    13    1
    15     6    14    1
    16     7    15    1
    17     8    16    1
    18    12    17    1
