@<TRIPOS>MOLECULE
O=c1ccc2nncn2[nH]1
 14 15 0 0 0
SMALL
GASTEIGER
Energy = 0

@<TRIPOS>ATOM
      1 O           1.7723    0.7164    0.0000 O.2     1  LIG1       -0.2665
      2 C           1.0579    0.3039    0.0000 C.ar    1  LIG1        0.2637
      3 N           0.3434    0.7164    0.0000 N.ar    1  LIG1       -0.2564
      4 N          -0.3711    0.3039    0.0000 N.ar    1  LIG1       -0.2199
      5 C          -1.1557    0.5589    0.0000 C.ar    1  LIG1        0.1401
      6 N          -1.6406   -0.1086    0.0000 N.ar    1  LIG1       -0.1357
      7 N          -1.1557   -0.7760    0.0000 N.ar    1  LIG1       -0.1283
      8 C          -0.3711   -0.5211    0.0000 C.ar    1  LIG1        0.1758
      9 C           0.3434   -0.9336    0.0000 C.ar    1  LIG1       -0.0105
     10 C           1.0579   -0.5211    0.0000 C.ar    1  LIG1        0.0077
     11 H           0.3434    1.7989    0.0000 H       1  LIG1        0.1906
     12 H          -1.4961    1.6065    0.0000 H       1  LIG1        0.1066
     13 H           0.3434   -2.0351    0.0000 H       1  LIG1        0.0657
     14 H           2.0118   -1.0719    0.0000 H       1  LIG1        0.0673
@<TRIPOS>BOND
     1     1     2    2
     2     2     3   ar
     3     3     4   ar
     4     4     5   ar
     5     5     6   ar
     6     6     7   ar
     7     7     8   ar
     8     4     8   ar
     9     8     9   ar
    10     9    10   ar
    11     2    10   ar
    12     3    11    1
    13     5    12    1
    14     9    13    1
    15    10    14    1
