@<TRIPOS>MOLECULE
Cn1[nH]c(=O)c2cccnc12
 18 19 0 0 0
SMALL
GASTEIGER
Energy = 0

@<TRIPOS>ATOM
      1 C           0.9382   -1.4719    0.0000 C.3     1  LIG1        0.0304
      2 N           0.6833   -0.6872    0.0000 N.ar    1  LIG1       -0.2695
      3 N           1.1682   -0.0198    0.0000 N.ar    1  LIG1       -0.2616
      4 C           0.6833    0.6476    0.0000 C.ar    1  LIG1        0.2740
      5 O           0.9382    1.4323    0.0000 O.2     1  LIG1       -0.2657
      6 C          -0.1013    0.3927    0.0000 C.ar    1  LIG1        0.0843
      7 C          -0.8158    0.8052    0.0000 C.ar    1  LIG1       -0.0444
      8 C          -1.5303    0.3927    0.0000 C.ar    1  LIG1       -0.0427
      9 C          -1.5303   -0.4323    0.0000 C.ar    1  LIG1        0.0300
     10 N          -0.8158   -0.8448    0.0000 N.ar    1  LIG1       -0.2359
     11 C          -0.1013   -0.4323    0.0000 C.ar    1  LIG1        0.1601
     12 H           2.0778   -1.5018    0.0000 H       1  LIG1        0.0473
     13 H           0.5290   -2.0198   -0.9121 H       1  LIG1        0.0473
     14 H           0.5497   -1.9921    0.9370 H       1  LIG1        0.0473
     15 H           2.2507   -0.0198    0.0000 H       1  LIG1        0.1902
     16 H          -0.8158    1.9067    0.0000 H       1  LIG1        0.0627
     17 H          -2.4842    0.9435    0.0000 H       1  LIG1        0.0633
     18 H          -2.4842   -0.9831    0.0000 H       1  LIG1        0.0830
@<TRIPOS>BOND
     1     1     2    1
     2     2     3   ar
     3     3     4   ar
     4     4     5    2
     5     4     6   ar
     6     6     7   ar
     7     7     8   ar
     8     8     9   ar
     9     9    10   ar
    10    10    11   ar
    11     2    11   ar
    12     6    11   ar
    13     1    12    1
    14     1    13    1
    15     1    14    1
    16     3    15    1
    17     7    16    1
    18     8    17    1
    19     9    18    1
