@<TRIPOS>MOLECULE
c1ncc2ncnnc2n1
 13 14 0 0 0
SMALL
GASTEIGER
Energy = 0

@<TRIPOS>ATOM
      1 C           1.4399   -0.3998    0.0000 C.ar    1  LIG1        0.1185
      2 N           1.4399    0.4252    0.0000 N.ar    1  LIG1       -0.2414
      3 C           0.7254    0.8377    0.0000 C.ar    1  LIG1        0.0584
      4 C           0.0110    0.4252    0.0000 C.ar    1  LIG1        0.1294
      5 N          -0.7035    0.8377    0.0000 N.ar    1  LIG1       -0.2289
      6 C          -1.4180    0.4252    0.0000 C.ar    1  LIG1        0.1391
      7 N          -1.4180   -0.3998    0.0000 N.ar    1  LIG1       -0.1357
      8 N          -0.7035   -0.8123    0.0000 N.ar    1  LIG1       -0.1260
      9 C           0.0110   -0.3998    0.0000 C.ar    1  LIG1        0.2032
     10 N           0.7254   -0.8123    0.0000 N.ar    1  LIG1       -0.2131
     11 H           2.3938   -0.9506    0.0000 H       1  LIG1        0.1047
     12 H           0.7254    1.9392    0.0000 H       1  LIG1        0.0853
     13 H          -2.3719    0.9760    0.0000 H       1  LIG1        0.1066
@<TRIPOS>BOND
     1     1     2   ar
     2     2     3   ar
     3     3     4   ar
     4     4     5   ar
     5     5     6   ar
     6     6     7   ar
     7     7     8   ar
     8     8     9   ar
     9     4     9   ar
    10     9    10   ar
    11     1    10   ar
    12     1    11    1
    13     3    12    1
    14     6    13    1
