@<TRIPOS>MOLECULE
c1[nH]cc2ccccc12
 16 17 0 0 0
SMALL
GASTEIGER
Energy = 0

@<TRIPOS>ATOM
      1 N           1.4045    0.0000    0.0000 N.ar    1  LIG1       -0.3659
      2 C           0.9196    0.6674    0.0000 C.ar    1  LIG1        0.0094
      3 C           0.1350    0.4125    0.0000 C.ar    1  LIG1       -0.0006
      4 C          -0.5795    0.8250    0.0000 C.ar    1  LIG1       -0.0526
      5 C          -1.2940    0.4125    0.0000 C.ar    1  LIG1       -0.0611
      6 C          -1.2940   -0.4125    0.0000 C.ar    1  LIG1       -0.0611
      7 C          -0.5795   -0.8250    0.0000 C.ar    1  LIG1       -0.0526
      8 C           0.1350   -0.4125    0.0000 C.ar    1  LIG1       -0.0006
      9 C           0.9196   -0.6674    0.0000 C.ar    1  LIG1        0.0094
     10 H           2.4870    0.0000    0.0000 H       1  LIG1        0.1648
     11 H           1.2600    1.7150    0.0000 H       1  LIG1        0.0813
     12 H          -0.5795    1.9265    0.0000 H       1  LIG1        0.0624
     13 H          -2.2479    0.9633    0.0000 H       1  LIG1        0.0618
     14 H          -2.2479   -0.9633    0.0000 H       1  LIG1        0.0618
     15 H          -0.5795   -1.9265    0.0000 H       1  LIG1        0.0624
     16 H           1.2600   -1.7150    0.0000 H       1  LIG1        0.0813
@<TRIPOS>BOND
     1     1     2   ar
     2     2     3   ar
     3     3     4   ar
     4     4     5   ar
     5     5     6   ar
     6     6     7   ar
     7     7     8   ar
     8     3     8   ar
     9     8     9   ar
    10     1     9   ar
    11     1    10    1
    12     2    11    1
    13     4    12    1
    14     5    13    1
    15     6    14    1
    16     7    15    1
    17     9    16    1
