@<TRIPOS>MOLECULE
Cn1nnc2cnccc12
 16 17 0 0 0
SMALL
GASTEIGER
Energy = 0

@<TRIPOS>ATOM
      1 C           1.0559   -1.3223    0.0000 C.3     1  LIG1        0.0325
      2 N           0.8010   -0.5377    0.0000 N.ar    1  LIG1       -0.2469
      3 N           1.2859    0.1297    0.0000 N.ar    1  LIG1       -0.0648
      4 N           0.8010    0.7972    0.0000 N.ar    1  LIG1       -0.1279
      5 C           0.0163    0.5422    0.0000 C.ar    1  LIG1        0.1307
      6 C          -0.6981    0.9547    0.0000 C.ar    1  LIG1        0.0568
      7 N          -1.4126    0.5422    0.0000 N.ar    1  LIG1       -0.2610
      8 C          -1.4126   -0.2828    0.0000 C.ar    1  LIG1        0.0297
      9 C          -0.6981   -0.6953    0.0000 C.ar    1  LIG1       -0.0164
     10 C           0.0163   -0.2828    0.0000 C.ar    1  LIG1        0.0916
     11 H           2.1955   -1.3522    0.0000 H       1  LIG1        0.0473
     12 H           0.6467   -1.8702   -0.9121 H       1  LIG1        0.0473
     13 H           0.6674   -1.8425    0.9370 H       1  LIG1        0.0473
     14 H          -0.6981    2.0562    0.0000 H       1  LIG1        0.0852
     15 H          -2.3665   -0.8336    0.0000 H       1  LIG1        0.0830
     16 H          -0.6981   -1.7968    0.0000 H       1  LIG1        0.0654
@<TRIPOS>BOND
     1     1     2    1
     2     2     3   ar
     3     3     4   ar
     4     4     5   ar
     5     5     6   ar
     6     6     7   ar
     7     7     8   ar
     8     8     9   ar
     9     9    10   ar
    10     2    10   ar
    11     5    10   ar
    12     1    11    1
    13     1    12    1
    14     1    13    1
    15     6    14    1
    16     8    15    1
    17     9    16    1
