@<TRIPOS>MOLECULE
c1cc2ncsc2o1
 11 12 0 0 0
SMALL
GASTEIGER
Energy = 0

@<TRIPOS>ATOM
      1 O           0.9007   -0.5469    0.0000 O.2     1  LIG1       -0.4542
      2 C           1.3856    0.1205    0.0000 C.ar    1  LIG1        0.0954
      3 C           0.9007    0.7879    0.0000 C.ar    1  LIG1        0.0028
      4 C           0.1160    0.5330    0.0000 C.ar    1  LIG1        0.1164
      5 C           0.1160   -0.2920    0.0000 C.ar    1  LIG1        0.1918
      6 S          -0.6686   -0.5469    0.0000 S.2     1  LIG1       -0.0380
      7 C          -1.1535    0.1205    0.0000 C.ar    1  LIG1        0.0689
      8 N          -0.6686    0.7879    0.0000 N.ar    1  LIG1       -0.2441
      9 H           2.4871    0.1205    0.0000 H       1  LIG1        0.1030
     10 H           1.2411    1.8355    0.0000 H       1  LIG1        0.0671
     11 H          -2.2550    0.1205    0.0000 H       1  LIG1        0.0908
@<TRIPOS>BOND
     1     1     2   ar
     2     2     3   ar
     3     3     4   ar
     4     4     5   ar
     5     1     5   ar
     6     5     6   ar
     7     6     7   ar
     8     7     8   ar
     9     4     8   ar
    10     2     9    1
    11     3    10    1
    12     7    11    1
