@<TRIPOS>MOLECULE
Cn1cnc2sncc12
 14 15 0 0 0
SMALL
GASTEIGER
Energy = 0

@<TRIPOS>ATOM
      1 C           1.0593   -1.4218    0.0000 C.3     1  LIG1        0.0133
      2 N           0.8044   -0.6372    0.0000 N.ar    1  LIG1       -0.3315
      3 C           1.2893    0.0302    0.0000 C.ar    1  LIG1        0.0975
      4 N           0.8044    0.6977    0.0000 N.ar    1  LIG1       -0.2271
      5 C           0.0198    0.4427    0.0000 C.ar    1  LIG1        0.1456
      6 C           0.0198   -0.3823    0.0000 C.ar    1  LIG1        0.0956
      7 C          -0.7649   -0.6372    0.0000 C.ar    1  LIG1        0.0623
      8 N          -1.2498    0.0302    0.0000 N.ar    1  LIG1       -0.2145
      9 S          -0.7649    0.6977    0.0000 S.2     1  LIG1        0.0332
     10 H           2.1989   -1.4517    0.0000 H       1  LIG1        0.0456
     11 H           0.6501   -1.9697   -0.9121 H       1  LIG1        0.0456
     12 H           0.6708   -1.9420    0.9370 H       1  LIG1        0.0456
     13 H           2.3908    0.0302    0.0000 H       1  LIG1        0.1029
     14 H          -1.1053   -1.6848    0.0000 H       1  LIG1        0.0858
@<TRIPOS>BOND
     1     1     2    1
     2     2     3   ar
     3     3     4   ar
     4     4     5   ar
     5     5     6   ar
     6     2     6   ar
     7     6     7   ar
     8     7     8   ar
     9     8     9   ar
    10     5     9   ar
    11     1    10    1
    12     1    11    1
    13     1    12    1
    14     3    13    1
    15     7    14    1
