@<TRIPOS>MOLECULE
c1nc2[nH]ncc2[nH]1
 12 13 0 0 0
SMALL
GASTEIGER
Energy = 0

@<TRIPOS>ATOM
      1 N           0.7939   -0.6802    0.0000 N.ar    1  LIG1       -0.3419
      2 C           1.2788   -0.0128    0.0000 C.ar    1  LIG1        0.0962
      3 N           0.7939    0.6546    0.0000 N.ar    1  LIG1       -0.2170
      4 C           0.0093    0.3997    0.0000 C.ar    1  LIG1        0.1737
      5 C           0.0093   -0.4253    0.0000 C.ar    1  LIG1        0.1045
      6 C          -0.7753   -0.6802    0.0000 C.ar    1  LIG1        0.0747
      7 N          -1.2602   -0.0128    0.0000 N.ar    1  LIG1       -0.1784
      8 N          -0.7753    0.6546    0.0000 N.ar    1  LIG1       -0.2590
      9 H           1.1284   -1.7097    0.0000 H       1  LIG1        0.1669
     10 H           2.3803   -0.0128    0.0000 H       1  LIG1        0.1027
     11 H          -1.1157   -1.7278    0.0000 H       1  LIG1        0.0869
     12 H          -1.1098    1.6841    0.0000 H       1  LIG1        0.1906
@<TRIPOS>BOND
     1     1     2   ar
     2     2     3   ar
     3     3     4   ar
     4     4     5   ar
     5     1     5   ar
     6     5     6   ar
     7     6     7   ar
     8     7     8   ar
     9     4     8   ar
    10     1     9    1
    11     2    10    1
    12     6    11    1
    13     8    12    1
