@<TRIPOS>MOLECULE
Cn1sc2ccncc2c1=O
 17 18 0 0 0
SMALL
GASTEIGER
Energy = 0

@<TRIPOS>ATOM
      1 C           1.8459    0.0666    0.0000 C.3     1  LIG1        0.0221
      2 N           1.0209    0.0666    0.0000 N.ar    1  LIG1       -0.2810
      3 S           0.5360    0.7341    0.0000 S.2     1  LIG1       -0.0084
      4 C          -0.2486    0.4791    0.0000 C.ar    1  LIG1        0.0443
      5 C          -0.9631    0.8916    0.0000 C.ar    1  LIG1       -0.0277
      6 C          -1.6775    0.4791    0.0000 C.ar    1  LIG1        0.0287
      7 N          -1.6775   -0.3459    0.0000 N.ar    1  LIG1       -0.2624
      8 C          -0.9631   -0.7584    0.0000 C.ar    1  LIG1        0.0410
      9 C          -0.2486   -0.3459    0.0000 C.ar    1  LIG1        0.0731
     10 C           0.5360   -0.6008    0.0000 C.ar    1  LIG1        0.2669
     11 O           0.7910   -1.3854    0.0000 O.2     1  LIG1       -0.2664
     12 H           2.2264    1.1412    0.0000 H       1  LIG1        0.0463
     13 H           2.2406   -0.4919   -0.9121 H       1  LIG1        0.0463
     14 H           2.2206   -0.4636    0.9370 H       1  LIG1        0.0463
     15 H          -0.9631    1.9931    0.0000 H       1  LIG1        0.0644
     16 H          -2.6314    1.0298    0.0000 H       1  LIG1        0.0830
     17 H          -0.9631   -1.8599    0.0000 H       1  LIG1        0.0837
@<TRIPOS>BOND
     1     1     2    1
     2     2     3   ar
     3     3     4   ar
     4     4     5   ar
     5     5     6   ar
     6     6     7   ar
     7     7     8   ar
     8     8     9   ar
     9     4     9   ar
    10     9    10   ar
    11     2    10   ar
    12    10    11    2
    13     1    12    1
    14     1    13    1
    15     1    14    1
    16     5    15    1
    17     6    16    1
    18     8    17    1
