@<TRIPOS>MOLECULE
c1snc2cnncc12
 12 13 0 0 0
SMALL
GASTEIGER
Energy = 0

@<TRIPOS>ATOM
      1 S           1.2402    0.0099    0.0000 S.2     1  LIG1        0.0045
      2 C           0.7553    0.6774    0.0000 C.ar    1  LIG1        0.0050
      3 C          -0.0293    0.4224    0.0000 C.ar    1  LIG1        0.0302
      4 C          -0.7438    0.8349    0.0000 C.ar    1  LIG1        0.0597
      5 N          -1.4582    0.4224    0.0000 N.ar    1  LIG1       -0.1570
      6 N          -1.4582   -0.4026    0.0000 N.ar    1  LIG1       -0.1555
      7 C          -0.7438   -0.8151    0.0000 C.ar    1  LIG1        0.0765
      8 C          -0.0293   -0.4026    0.0000 C.ar    1  LIG1        0.1013
      9 N           0.7553   -0.6575    0.0000 N.ar    1  LIG1       -0.2088
     10 H           1.0957    1.7250    0.0000 H       1  LIG1        0.0715
     11 H          -0.7438    1.9364    0.0000 H       1  LIG1        0.0855
     12 H          -0.7438   -1.9166    0.0000 H       1  LIG1        0.0870
@<TRIPOS>BOND
     1     1     2   ar
     2     2     3   ar
     3     3     4   ar
     4     4     5   ar
     5     5     6   ar
     6     6     7   ar
     7     7     8   ar
     8     3     8   ar
     9     8     9   ar
    10     1     9   ar
    11     2    10    1
    12     4    11    1
    13     7    12    1
