@<TRIPOS>MOLECULE
c1nn2cncc2[nH]1
 12 13 0 0 0
SMALL
GASTEIGER
Energy = 0

@<TRIPOS>ATOM
      1 N           0.7789   -0.6754    0.0000 N.ar    1  LIG1       -0.3283
      2 C           1.2638   -0.0079    0.0000 C.ar    1  LIG1        0.1159
      3 N           0.7789    0.6595    0.0000 N.ar    1  LIG1       -0.1542
      4 N          -0.0057    0.4046    0.0000 N.ar    1  LIG1       -0.2027
      5 C          -0.7904    0.6595    0.0000 C.ar    1  LIG1        0.1198
      6 N          -1.2753   -0.0079    0.0000 N.ar    1  LIG1       -0.2400
      7 C          -0.7904   -0.6754    0.0000 C.ar    1  LIG1        0.0717
      8 C          -0.0057   -0.4204    0.0000 C.ar    1  LIG1        0.1534
      9 H           1.1134   -1.7049    0.0000 H       1  LIG1        0.1683
     10 H           2.3653   -0.0079    0.0000 H       1  LIG1        0.1045
     11 H          -1.1308    1.7071    0.0000 H       1  LIG1        0.1048
     12 H          -1.1308   -1.7230    0.0000 H       1  LIG1        0.0867
@<TRIPOS>BOND
     1     1     2   ar
     2     2     3   ar
     3     3     4   ar
     4     4     5   ar
     5     5     6   ar
     6     6     7   ar
     7     7     8   ar
     8     1     8   ar
     9     4     8   ar
    10     1     9    1
    11     2    10    1
    12     5    11    1
    13     7    12    1
