@<TRIPOS>MOLECULE
Cn1ccc2occc12
 16 17 0 0 0
SMALL
GASTEIGER
Energy = 0

@<TRIPOS>ATOM
      1 C           0.9438   -1.3108    0.0000 C.3     1  LIG1        0.0120
      2 N           0.6889   -0.5262    0.0000 N.ar    1  LIG1       -0.3471
      3 C           1.1738    0.1412    0.0000 C.ar    1  LIG1        0.0084
      4 C           0.6889    0.8087    0.0000 C.ar    1  LIG1       -0.0012
      5 C          -0.0957    0.5537    0.0000 C.ar    1  LIG1        0.1524
      6 C          -0.0957   -0.2713    0.0000 C.ar    1  LIG1        0.0873
      7 C          -0.8804   -0.5262    0.0000 C.ar    1  LIG1        0.0003
      8 C          -1.3653    0.1412    0.0000 C.ar    1  LIG1        0.0946
      9 O          -0.8804    0.8087    0.0000 O.2     1  LIG1       -0.4614
     10 H           2.0834   -1.3407    0.0000 H       1  LIG1        0.0456
     11 H           0.5346   -1.8587   -0.9121 H       1  LIG1        0.0456
     12 H           0.5553   -1.8310    0.9370 H       1  LIG1        0.0456
     13 H           2.2753    0.1412    0.0000 H       1  LIG1        0.0810
     14 H           1.0293    1.8563    0.0000 H       1  LIG1        0.0669
     15 H          -1.2208   -1.5738    0.0000 H       1  LIG1        0.0670
     16 H          -2.4668    0.1412    0.0000 H       1  LIG1        0.1030
@<TRIPOS>BOND
     1     1     2    1
     2     2     3   ar
     3     3     4   ar
     4     4     5   ar
     5     5     6   ar
     6     2     6   ar
     7     6     7   ar
     8     7     8   ar
     9     8     9   ar
    10     5     9   ar
    11     1    10    1
    12     1    11    1
    13     1    12    1
    14     3    13    1
    15     4    14    1
    16     7    15    1
    17     8    16    1
