@<TRIPOS>MOLECULE
Cn1[nH]c2ccccc2c1=O
 19 20 0 0 0
SMALL
GASTEIGER
Energy = 0

@<TRIPOS>ATOM
      1 C           1.8911    0.1563    0.0000 C.3     1  LIG1        0.0319
      2 N           1.0661    0.1563    0.0000 N.ar    1  LIG1       -0.2545
      3 N           0.5812    0.8238    0.0000 N.ar    1  LIG1       -0.2943
      4 C          -0.2034    0.5688    0.0000 C.ar    1  LIG1        0.0677
      5 C          -0.9179    0.9813    0.0000 C.ar    1  LIG1       -0.0362
      6 C          -1.6324    0.5688    0.0000 C.ar    1  LIG1       -0.0597
      7 C          -1.6324   -0.2562    0.0000 C.ar    1  LIG1       -0.0609
      8 C          -0.9179   -0.6687    0.0000 C.ar    1  LIG1       -0.0473
      9 C          -0.2034   -0.2562    0.0000 C.ar    1  LIG1        0.0655
     10 C           0.5812   -0.5111    0.0000 C.ar    1  LIG1        0.2745
     11 O           0.8361   -1.2957    0.0000 O.2     1  LIG1       -0.2656
     12 H           2.2716    1.2309    0.0000 H       1  LIG1        0.0473
     13 H           2.2858   -0.4022   -0.9121 H       1  LIG1        0.0473
     14 H           2.2658   -0.3739    0.9370 H       1  LIG1        0.0473
     15 H           0.9157    1.8533    0.0000 H       1  LIG1        0.1870
     16 H          -0.9179    2.0828    0.0000 H       1  LIG1        0.0639
     17 H          -2.5863    1.1196    0.0000 H       1  LIG1        0.0618
     18 H          -2.5863   -0.8070    0.0000 H       1  LIG1        0.0618
     19 H          -0.9179   -1.7702    0.0000 H       1  LIG1        0.0626
@<TRIPOS>BOND
     1     1     2    1
     2     2     3   ar
     3     3     4   ar
     4     4     5   ar
     5     5     6   ar
     6     6     7   ar
     7     7     8   ar
     8     8     9   ar
     9     4     9   ar
    10     9    10   ar
    11     2    10   ar
    12    10    11    2
    13     1    12    1
    14     1    13    1
    15     1    14    1
    16     3    15    1
    17     5    16    1
    18     6    17    1
    19     7    18    1
    20     8    19    1
