@<TRIPOS>MOLECULE
O=c1cnn2ccsc2c1
 14 15 0 0 0
SMALL
GASTEIGER
Energy = 0

@<TRIPOS>ATOM
      1 O           1.8911   -0.6622    0.0000 O.2     1  LIG1       -0.2861
      2 C           1.1766   -0.2497    0.0000 C.ar    1  LIG1        0.2011
      3 C           1.1766    0.5753    0.0000 C.ar    1  LIG1        0.0950
      4 N           0.4622    0.9878    0.0000 N.ar    1  LIG1       -0.1705
      5 N          -0.2523    0.5753    0.0000 N.ar    1  LIG1       -0.2325
      6 C          -1.0369    0.8302    0.0000 C.ar    1  LIG1        0.0369
      7 C          -1.5218    0.1628    0.0000 C.ar    1  LIG1       -0.0042
      8 S          -1.0369   -0.5047    0.0000 S.2     1  LIG1       -0.0761
      9 C          -0.2523   -0.2497    0.0000 C.ar    1  LIG1        0.1062
     10 C           0.4622   -0.6622    0.0000 C.ar    1  LIG1        0.0188
     11 H           2.1305    1.1260    0.0000 H       1  LIG1        0.0887
     12 H          -1.3773    1.8778    0.0000 H       1  LIG1        0.0836
     13 H          -2.6233    0.1628    0.0000 H       1  LIG1        0.0709
     14 H           0.4622   -1.7637    0.0000 H       1  LIG1        0.0683
@<TRIPOS>BOND
     1     1     2    2
     2     2     3   ar
     3     3     4   ar
     4     4     5   ar
     5     5     6   ar
     6     6     7   ar
     7     7     8   ar
     8     8     9   ar
     9     5     9   ar
    10     9    10   ar
    11     2    10   ar
    12     3    11    1
    13     6    12    1
    14     7    13    1
    15    10    14    1
