@<TRIPOS>MOLECULE
O=c1[nH]ccc2cncnc12
 16 17 0 0 0
SMALL
GASTEIGER
Energy = 0

@<TRIPOS>ATOM
      1 O           0.6441   -1.4526    0.0000 O.2     1  LIG1       -0.2656
      2 C           0.6441   -0.6276    0.0000 C.ar    1  LIG1        0.2749
      3 N           1.3585   -0.2151    0.0000 N.ar    1  LIG1       -0.3273
      4 C           1.3585    0.6099    0.0000 C.ar    1  LIG1        0.0057
      5 C           0.6441    1.0224    0.0000 C.ar    1  LIG1       -0.0349
      6 C          -0.0704    0.6099    0.0000 C.ar    1  LIG1        0.0252
      7 C          -0.7849    1.0224    0.0000 C.ar    1  LIG1        0.0387
      8 N          -1.4994    0.6099    0.0000 N.ar    1  LIG1       -0.2431
      9 C          -1.4994   -0.2151    0.0000 C.ar    1  LIG1        0.1168
     10 N          -0.7849   -0.6276    0.0000 N.ar    1  LIG1       -0.2300
     11 C          -0.0704   -0.2151    0.0000 C.ar    1  LIG1        0.1382
     12 H           2.2960   -0.7563    0.0000 H       1  LIG1        0.1684
     13 H           2.3124    1.1606    0.0000 H       1  LIG1        0.0808
     14 H           0.6441    2.1239    0.0000 H       1  LIG1        0.0639
     15 H          -0.7849    2.1239    0.0000 H       1  LIG1        0.0837
     16 H          -2.4533   -0.7659    0.0000 H       1  LIG1        0.1047
@<TRIPOS>BOND
     1     1     2    2
     2     2     3   ar
     3     3     4   ar
     4     4     5   ar
     5     5     6   ar
     6     6     7   ar
     7     7     8   ar
     8     8     9   ar
     9     9    10   ar
    10    10    11   ar
    11     2    11   ar
    12     6    11   ar
    13     3    12    1
    14     4    13    1
    15     5    14    1
    16     7    15    1
    17     9    16    1
