@<TRIPOS>MOLECULE
c1ncn2cnnnc12
 12 13 0 0 0
SMALL
GASTEIGER
Energy = 0

@<TRIPOS>ATOM
      1 C           0.9708   -0.6744    0.0000 C.ar    1  LIG1        0.1028
      2 N           1.4558   -0.0070    0.0000 N.ar    1  LIG1       -0.2414
      3 C           0.9708    0.6605    0.0000 C.ar    1  LIG1        0.0739
      4 C           0.1862    0.4055    0.0000 C.ar    1  LIG1        0.1819
      5 N          -0.5282    0.8180    0.0000 N.ar    1  LIG1       -0.1096
      6 N          -1.2427    0.4055    0.0000 N.ar    1  LIG1       -0.0399
      7 N          -1.2427   -0.4195    0.0000 N.ar    1  LIG1       -0.1192
      8 C          -0.5282   -0.8320    0.0000 C.ar    1  LIG1        0.1269
      9 N           0.1862   -0.4195    0.0000 N.ar    1  LIG1       -0.2709
     10 H           1.3111   -1.7220    0.0000 H       1  LIG1        0.1033
     11 H           1.3111    1.7081    0.0000 H       1  LIG1        0.0868
     12 H          -0.5282   -1.9335    0.0000 H       1  LIG1        0.1052
@<TRIPOS>BOND
     1     1     2   ar
     2     2     3   ar
     3     3     4   ar
     4     4     5   ar
     5     5     6   ar
     6     6     7   ar
     7     7     8   ar
     8     8     9   ar
     9     1     9   ar
    10     4     9   ar
    11     1    10    1
    12     3    11    1
    13     8    12    1
