@<TRIPOS>MOLECULE
O=c1[nH]ncc2[nH]ncc12
 14 15 0 0 0
SMALL
GASTEIGER
Energy = 0

@<TRIPOS>ATOM
      1 O          -0.4841   -1.4602    0.0000 O.2     1  LIG1       -0.2657
      2 C          -0.4841   -0.6352    0.0000 C.ar    1  LIG1        0.2754
      3 N          -1.1986   -0.2227    0.0000 N.ar    1  LIG1       -0.2426
      4 N          -1.1986    0.6023    0.0000 N.ar    1  LIG1       -0.1772
      5 C          -0.4841    1.0148    0.0000 C.ar    1  LIG1        0.0733
      6 C           0.2304    0.6023    0.0000 C.ar    1  LIG1        0.0907
      7 C           0.2304   -0.2227    0.0000 C.ar    1  LIG1        0.0866
      8 C           1.0150   -0.4777    0.0000 C.ar    1  LIG1        0.0622
      9 N           1.4999    0.1898    0.0000 N.ar    1  LIG1       -0.1810
     10 N           1.0150    0.8572    0.0000 N.ar    1  LIG1       -0.2753
     11 H          -2.1361   -0.7640    0.0000 H       1  LIG1        0.1921
     12 H          -0.4841    2.1163    0.0000 H       1  LIG1        0.0869
     13 H           1.3554   -1.5253    0.0000 H       1  LIG1        0.0856
     14 H           1.3495    1.8867    0.0000 H       1  LIG1        0.1890
@<TRIPOS>BOND
     1     1     2    2
     2     2     3   ar
     3     3     4   ar
     4     4     5   ar
     5     5     6   ar
     6     6     7   ar
     7     2     7   ar
     8     7     8   ar
     9     8     9   ar
    10     9    10   ar
    11     6    10   ar
    12     3    11    1
    13     5    12    1
    14     8    13    1
    15    10    14    1
