@<TRIPOS>MOLECULE
Cn1c(=O)ccn2nccc12
 18 19 0 0 0
SMALL
GASTEIGER
Energy = 0

@<TRIPOS>ATOM
      1 C           0.2913   -1.4212    0.0000 C.3     1  LIG1        0.0166
      2 N           0.2913   -0.5962    0.0000 N.ar    1  LIG1       -0.2963
      3 C           1.0058   -0.1837    0.0000 C.ar    1  LIG1        0.2540
      4 O           1.7203   -0.5962    0.0000 O.2     1  LIG1       -0.2676
      5 C           1.0058    0.6413    0.0000 C.ar    1  LIG1        0.0212
      6 C           0.2913    1.0538    0.0000 C.ar    1  LIG1        0.0365
      7 N          -0.4231    0.6413    0.0000 N.ar    1  LIG1       -0.2232
      8 N          -1.2078    0.8962    0.0000 N.ar    1  LIG1       -0.1734
      9 C          -1.6927    0.2288    0.0000 C.ar    1  LIG1        0.0519
     10 C          -1.2078   -0.4387    0.0000 C.ar    1  LIG1        0.0007
     11 C          -0.4231   -0.1837    0.0000 C.ar    1  LIG1        0.1388
     12 H           1.3659   -1.8017    0.0000 H       1  LIG1        0.0457
     13 H          -0.2672   -1.8159   -0.9121 H       1  LIG1        0.0457
     14 H          -0.2389   -1.7959    0.9370 H       1  LIG1        0.0457
     15 H           1.9597    1.1921    0.0000 H       1  LIG1        0.0687
     16 H           0.2913    2.1553    0.0000 H       1  LIG1        0.0832
     17 H          -2.7942    0.2288    0.0000 H       1  LIG1        0.0848
     18 H          -1.5482   -1.4863    0.0000 H       1  LIG1        0.0670
@<TRIPOS>BOND
     1     1     2    1
     2     2     3   ar
     3     3     4    2
     4     3     5   ar
     5     5     6   ar
     6     6     7   ar
     7     7     8   ar
     8     8     9   ar
     9     9    10   ar
    10    10    11   ar
    11     2    11   ar
    12     7    11   ar
    13     1    12    1
    14     1    13    1
    15     1    14    1
    16     5    15    1
    17     6    16    1
    18     9    17    1
    19    10    18    1
