@<TRIPOS>MOLECULE
O=c1cc[nH]n2ccnc12
 15 16 0 0 0
SMALL
GASTEIGER
Energy = 0

@<TRIPOS>ATOM
      1 O           0.4940   -1.4558    0.0000 O.2     1  LIG1       -0.2839
      2 C           0.4940   -0.6308    0.0000 C.ar    1  LIG1        0.2241
      3 C           1.2084   -0.2183    0.0000 C.ar    1  LIG1        0.0062
      4 C           1.2084    0.6067    0.0000 C.ar    1  LIG1        0.0231
      5 N           0.4940    1.0192    0.0000 N.ar    1  LIG1       -0.2989
      6 N          -0.2205    0.6067    0.0000 N.ar    1  LIG1       -0.2400
      7 C          -1.0051    0.8616    0.0000 C.ar    1  LIG1        0.0475
      8 C          -1.4900    0.1942    0.0000 C.ar    1  LIG1        0.0482
      9 N          -1.0051   -0.4732    0.0000 N.ar    1  LIG1       -0.2315
     10 C          -0.2205   -0.2183    0.0000 C.ar    1  LIG1        0.1998
     11 H           2.1623   -0.7690    0.0000 H       1  LIG1        0.0672
     12 H           2.1623    1.1574    0.0000 H       1  LIG1        0.0824
     13 H           0.4940    2.1017    0.0000 H       1  LIG1        0.1867
     14 H          -1.3455    1.9092    0.0000 H       1  LIG1        0.0845
     15 H          -2.5915    0.1942    0.0000 H       1  LIG1        0.0846
@<TRIPOS>BOND
     1     1     2    2
     2     2     3   ar
     3     3     4   ar
     4     4     5   ar
     5     5     6   ar
     6     6     7   ar
     7     7     8   ar
     8     8     9   ar
     9     9    10   ar
    10     2    10   ar
    11     6    10   ar
    12     3    11    1
    13     4    12    1
    14     5    13    1
    15     7    14    1
    16     8    15    1
