@<TRIPOS>MOLECULE
O=c1cc2ccccn2[nH]1
 16 17 0 0 0
SMALL
GASTEIGER
Energy = 0

@<TRIPOS>ATOM
      1 O           1.9565   -0.0168    0.0000 O.2     1  LIG1       -0.2664
      2 C           1.1315   -0.0168    0.0000 C.ar    1  LIG1        0.2655
      3 N           0.6465    0.6506    0.0000 N.ar    1  LIG1       -0.2591
      4 N          -0.1381    0.3957    0.0000 N.ar    1  LIG1       -0.2594
      5 C          -0.8525    0.8082    0.0000 C.ar    1  LIG1        0.0277
      6 C          -1.5670    0.3957    0.0000 C.ar    1  LIG1       -0.0436
      7 C          -1.5670   -0.4293    0.0000 C.ar    1  LIG1       -0.0583
      8 C          -0.8525   -0.8418    0.0000 C.ar    1  LIG1       -0.0361
      9 C          -0.1381   -0.4293    0.0000 C.ar    1  LIG1        0.0685
     10 C           0.6465   -0.6843    0.0000 C.ar    1  LIG1        0.0294
     11 H           0.9810    1.6801    0.0000 H       1  LIG1        0.1905
     12 H          -0.8525    1.9097    0.0000 H       1  LIG1        0.0829
     13 H          -2.5209    0.9465    0.0000 H       1  LIG1        0.0633
     14 H          -2.5209   -0.9801    0.0000 H       1  LIG1        0.0619
     15 H          -0.8525   -1.9433    0.0000 H       1  LIG1        0.0639
     16 H           0.9868   -1.7319    0.0000 H       1  LIG1        0.0693
@<TRIPOS>BOND
     1     1     2    2
     2     2     3   ar
     3     3     4   ar
     4     4     5   ar
     5     5     6   ar
     6     6     7   ar
     7     7     8   ar
     8     8     9   ar
     9     4     9   ar
    10     9    10   ar
    11     2    10   ar
    12     3    11    1
    13     5    12    1
    14     6    13    1
    15     7    14    1
    16     8    15    1
    17    10    16    1
