@<TRIPOS>MOLECULE
Cn1ncoc1=O
 11 11 0 0 0
SMALL
GASTEIGER
Energy = 0

@<TRIPOS>ATOM
      1 C          -0.1568   -1.2757    0.0000 C.3     1  LIG1        0.0370
      2 N           0.0982   -0.4911    0.0000 N.ar    1  LIG1       -0.1982
      3 N           0.8828   -0.2362    0.0000 N.ar    1  LIG1       -0.1358
      4 C           0.8828    0.5888    0.0000 C.ar    1  LIG1        0.2059
      5 O           0.0982    0.8437    0.0000 O.2     1  LIG1       -0.3952
      6 C          -0.3867    0.1763    0.0000 C.ar    1  LIG1        0.4377
      7 O          -1.2117    0.1763    0.0000 O.2     1  LIG1       -0.2211
      8 H           0.7476   -1.9698    0.0000 H       1  LIG1        0.0475
      9 H          -0.8099   -1.4784   -0.9121 H       1  LIG1        0.0475
     10 H          -0.7769   -1.4682    0.9370 H       1  LIG1        0.0475
     11 H           1.7739    1.2363    0.0000 H       1  LIG1        0.1273
@<TRIPOS>BOND
     1     1     2    1
     2     2     3   ar
     3     3     4   ar
     4     4     5   ar
     5     5     6   ar
     6     2     6   ar
     7     6     7    2
     8     1     8    1
     9     1     9    1
    10     1    10    1
    11     4    11    1
