@<TRIPOS>MOLECULE
c1cnc2nnoc2c1
 12 13 0 0 0
SMALL
GASTEIGER
Energy = 0

@<TRIPOS>ATOM
      1 O           0.8828   -0.6701    0.0000 O.2     1  LIG1       -0.3341
      2 N           1.3677   -0.0027    0.0000 N.ar    1  LIG1        0.0363
      3 N           0.8828    0.6648    0.0000 N.ar    1  LIG1       -0.0907
      4 C           0.0981    0.4098    0.0000 C.ar    1  LIG1        0.2230
      5 N          -0.6163    0.8223    0.0000 N.ar    1  LIG1       -0.2315
      6 C          -1.3308    0.4098    0.0000 C.ar    1  LIG1        0.0302
      7 C          -1.3308   -0.4152    0.0000 C.ar    1  LIG1       -0.0399
      8 C          -0.6163   -0.8277    0.0000 C.ar    1  LIG1       -0.0114
      9 C           0.0981   -0.4152    0.0000 C.ar    1  LIG1        0.2061
     10 H          -2.2847    0.9606    0.0000 H       1  LIG1        0.0830
     11 H          -2.2847   -0.9660    0.0000 H       1  LIG1        0.0634
     12 H          -0.6163   -1.9292    0.0000 H       1  LIG1        0.0657
@<TRIPOS>BOND
     1     1     2   ar
     2     2     3   ar
     3     3     4   ar
     4     4     5   ar
     5     5     6   ar
     6     6     7   ar
     7     7     8   ar
     8     8     9   ar
     9     1     9   ar
    10     4     9   ar
    11     6    10    1
    12     7    11    1
    13     8    12    1
