@<TRIPOS>MOLECULE
c1snc2cncnc12
 12 13 0 0 0
SMALL
GASTEIGER
Energy = 0

@<TRIPOS>ATOM
      1 S           1.2296    0.0038    0.0000 S.2     1  LIG1        0.0061
      2 C           0.7447    0.6712    0.0000 C.ar    1  LIG1        0.0218
      3 C          -0.0399    0.4163    0.0000 C.ar    1  LIG1        0.1009
      4 N          -0.7544    0.8288    0.0000 N.ar    1  LIG1       -0.2333
      5 C          -1.4689    0.4163    0.0000 C.ar    1  LIG1        0.1167
      6 N          -1.4689   -0.4087    0.0000 N.ar    1  LIG1       -0.2415
      7 C          -0.7544   -0.8212    0.0000 C.ar    1  LIG1        0.0574
      8 C          -0.0399   -0.4087    0.0000 C.ar    1  LIG1        0.1163
      9 N           0.7447   -0.6636    0.0000 N.ar    1  LIG1       -0.2073
     10 H           1.0851    1.7188    0.0000 H       1  LIG1        0.0730
     11 H          -2.4228    0.9671    0.0000 H       1  LIG1        0.1047
     12 H          -0.7544   -1.9227    0.0000 H       1  LIG1        0.0853
@<TRIPOS>BOND
     1     1     2   ar
     2     2     3   ar
     3     3     4   ar
     4     4     5   ar
     5     5     6   ar
     6     6     7   ar
     7     7     8   ar
     8     3     8   ar
     9     8     9   ar
    10     1     9   ar
    11     2    10    1
    12     5    11    1
    13     7    12    1
