@<TRIPOS>MOLECULE
Cn1c(=O)ncc2ocnc12
 16 17 0 0 0
SMALL
GASTEIGER
Energy = 0

@<TRIPOS>ATOM
      1 C          -0.3048   -1.4275    0.0000 C.3     1  LIG1        0.0182
      2 N          -0.3048   -0.6025    0.0000 N.ar    1  LIG1       -0.2770
      3 C          -1.0192   -0.1900    0.0000 C.ar    1  LIG1        0.3499
      4 O          -1.7337   -0.6025    0.0000 O.2     1  LIG1       -0.2445
      5 N          -1.0192    0.6350    0.0000 N.ar    1  LIG1       -0.1976
      6 C          -0.3048    1.0475    0.0000 C.ar    1  LIG1        0.0789
      7 C           0.4097    0.6350    0.0000 C.ar    1  LIG1        0.1902
      8 C           0.4097   -0.1900    0.0000 C.ar    1  LIG1        0.1846
      9 N           1.1943   -0.4449    0.0000 N.ar    1  LIG1       -0.1979
     10 C           1.6792    0.2225    0.0000 C.ar    1  LIG1        0.1846
     11 O           1.1943    0.8900    0.0000 O.2     1  LIG1       -0.4393
     12 H          -1.3794   -1.8080    0.0000 H       1  LIG1        0.0458
     13 H           0.2537   -1.8222    0.9121 H       1  LIG1        0.0458
     14 H           0.2254   -1.8022   -0.9370 H       1  LIG1        0.0458
     15 H          -0.3048    2.1490    0.0000 H       1  LIG1        0.0870
     16 H           2.7807    0.2225    0.0000 H       1  LIG1        0.1255
@<TRIPOS>BOND
     1     1     2    1
     2     2     3   ar
     3     3     4    2
     4     3     5   ar
     5     5     6   ar
     6     6     7   ar
     7     7     8   ar
     8     2     8   ar
     9     8     9   ar
    10     9    10   ar
    11    10    11   ar
    12     7    11   ar
    13     1    12    1
    14     1    13    1
    15     1    14    1
    16     6    15    1
    17    10    16    1
