@<TRIPOS>MOLECULE
Cn1cnc2cn[nH]c2c1=O
 17 18 0 0 0
SMALL
GASTEIGER
Energy = 0

@<TRIPOS>ATOM
      1 C          -1.7635   -0.5695    0.0000 C.3     1  LIG1        0.0161
      2 N          -1.0490   -0.1570    0.0000 N.ar    1  LIG1       -0.3006
      3 C          -1.0490    0.6680    0.0000 C.ar    1  LIG1        0.0991
      4 N          -0.3345    1.0805    0.0000 N.ar    1  LIG1       -0.2339
      5 C           0.3799    0.6680    0.0000 C.ar    1  LIG1        0.1152
      6 C           0.3799   -0.1570    0.0000 C.ar    1  LIG1        0.1485
      7 N           1.1646   -0.4119    0.0000 N.ar    1  LIG1       -0.2705
      8 N           1.6495    0.2555    0.0000 N.ar    1  LIG1       -0.1794
      9 C           1.1646    0.9229    0.0000 C.ar    1  LIG1        0.0753
     10 C          -0.3345   -0.5695    0.0000 C.ar    1  LIG1        0.2792
     11 O          -0.3345   -1.3945    0.0000 O.2     1  LIG1       -0.2653
     12 H          -2.6303    0.1709    0.0000 H       1  LIG1        0.0457
     13 H          -1.8261   -1.2505    0.9121 H       1  LIG1        0.0457
     14 H          -1.8229   -1.2161   -0.9370 H       1  LIG1        0.0457
     15 H          -2.0029    1.2188    0.0000 H       1  LIG1        0.1030
     16 H           1.4991   -1.4414    0.0000 H       1  LIG1        0.1891
     17 H           1.5050    1.9705    0.0000 H       1  LIG1        0.0870
@<TRIPOS>BOND
     1     1     2    1
     2     2     3   ar
     3     3     4   ar
     4     4     5   ar
     5     5     6   ar
     6     6     7   ar
     7     7     8   ar
     8     8     9   ar
     9     5     9   ar
    10     6    10   ar
    11     2    10   ar
    12    10    11    2
    13     1    12    1
    14     1    13    1
    15     1    14    1
    16     3    15    1
    17     7    16    1
    18     9    17    1
