@<TRIPOS>MOLECULE
Cn1ccnc2cnc(=O)cc12
 19 20 0 0 0
SMALL
GASTEIGER
Energy = 0

@<TRIPOS>ATOM
      1 C           0.8813   -1.4411    0.0000 C.3     1  LIG1        0.0120
      2 N           0.8813   -0.6161    0.0000 N.ar    1  LIG1       -0.3469
      3 C           1.5958   -0.2036    0.0000 C.ar    1  LIG1        0.0229
      4 C           1.5958    0.6214    0.0000 C.ar    1  LIG1        0.0445
      5 N           0.8813    1.0339    0.0000 N.ar    1  LIG1       -0.2505
      6 C           0.1668    0.6214    0.0000 C.ar    1  LIG1        0.1056
      7 C          -0.5476    1.0339    0.0000 C.ar    1  LIG1        0.0589
      8 N          -1.2621    0.6214    0.0000 N.ar    1  LIG1       -0.2153
      9 C          -1.2621   -0.2036    0.0000 C.ar    1  LIG1        0.2723
     10 O          -1.9766   -0.6161    0.0000 O.2     1  LIG1       -0.2658
     11 C          -0.5476   -0.6161    0.0000 C.ar    1  LIG1        0.0303
     12 C           0.1668   -0.2036    0.0000 C.ar    1  LIG1        0.0740
     13 H           1.9559   -1.8216    0.0000 H       1  LIG1        0.0456
     14 H           0.3228   -1.8358   -0.9121 H       1  LIG1        0.0456
     15 H           0.3511   -1.8158    0.9370 H       1  LIG1        0.0456
     16 H           2.5497   -0.7544    0.0000 H       1  LIG1        0.0824
     17 H           2.5497    1.1722    0.0000 H       1  LIG1        0.0844
     18 H          -0.5476    2.1354    0.0000 H       1  LIG1        0.0853
     19 H          -0.5476   -1.7176    0.0000 H       1  LIG1        0.0694
@<TRIPOS>BOND
     1     1     2    1
     2     2     3   ar
     3     3     4   ar
     4     4     5   ar
     5     5     6   ar
     6     6     7   ar
     7     7     8   ar
     8     8     9   ar
     9     9    10    2
    10     9    11   ar
    11    11    12   ar
    12     2    12   ar
    13     6    12   ar
    14     1    13    1
    15     1    14    1
    16     1    15    1
    17     3    16    1
    18     4    17    1
    19     7    18    1
    20    11    19    1
