@<TRIPOS>MOLECULE
Cn1cc2occc2n1
 15 16 0 0 0
SMALL
GASTEIGER
Energy = 0

@<TRIPOS>ATOM
      1 C           1.8695   -0.0115    0.0000 C.3     1  LIG1        0.0303
      2 N           1.0445   -0.0115    0.0000 N.ar    1  LIG1       -0.2703
      3 C           0.5595    0.6560    0.0000 C.ar    1  LIG1        0.0681
      4 C          -0.2251    0.4010    0.0000 C.ar    1  LIG1        0.1722
      5 O          -1.0097    0.6560    0.0000 O.2     1  LIG1       -0.4598
      6 C          -1.4946   -0.0115    0.0000 C.ar    1  LIG1        0.0948
      7 C          -1.0097   -0.6789    0.0000 C.ar    1  LIG1        0.0040
      8 C          -0.2251   -0.4240    0.0000 C.ar    1  LIG1        0.1306
      9 N           0.5595   -0.6789    0.0000 N.ar    1  LIG1       -0.1681
     10 H           2.2500    1.0631    0.0000 H       1  LIG1        0.0473
     11 H           2.2642   -0.5700   -0.9121 H       1  LIG1        0.0473
     12 H           2.2442   -0.5417    0.9370 H       1  LIG1        0.0473
     13 H           0.8998    1.7036    0.0000 H       1  LIG1        0.0864
     14 H          -2.5961   -0.0115    0.0000 H       1  LIG1        0.1030
     15 H          -1.3501   -1.7265    0.0000 H       1  LIG1        0.0671
@<TRIPOS>BOND
     1     1     2    1
     2     2     3   ar
     3     3     4   ar
     4     4     5   ar
     5     5     6   ar
     6     6     7   ar
     7     7     8   ar
     8     4     8   ar
     9     8     9   ar
    10     2     9   ar
    11     1    10    1
    12     1    11    1
    13     1    12    1
    14     3    13    1
    15     6    14    1
    16     7    15    1
