@<TRIPOS>MOLECULE
Cn1ccc2c[nH]c(=O)nc12
 18 19 0 0 0
SMALL
GASTEIGER
Energy = 0

@<TRIPOS>ATOM
      1 C           1.3345   -1.2213    0.0000 C.3     1  LIG1        0.0132
      2 N           1.0796   -0.4366    0.0000 N.ar    1  LIG1       -0.3348
      3 C           1.5645    0.2308    0.0000 C.ar    1  LIG1        0.0068
      4 C           1.0796    0.8982    0.0000 C.ar    1  LIG1       -0.0335
      5 C           0.2950    0.6433    0.0000 C.ar    1  LIG1        0.0350
      6 C          -0.4195    1.0558    0.0000 C.ar    1  LIG1        0.0171
      7 N          -1.1340    0.6433    0.0000 N.ar    1  LIG1       -0.3123
      8 C          -1.1340   -0.1817    0.0000 C.ar    1  LIG1        0.3477
      9 O          -1.8485   -0.5942    0.0000 O.2     1  LIG1       -0.2447
     10 N          -0.4195   -0.5942    0.0000 N.ar    1  LIG1       -0.1751
     11 C           0.2950   -0.1817    0.0000 C.ar    1  LIG1        0.1473
     12 H           2.4741   -1.2512    0.0000 H       1  LIG1        0.0456
     13 H           0.9253   -1.7692   -0.9121 H       1  LIG1        0.0456
     14 H           0.9460   -1.7415    0.9370 H       1  LIG1        0.0456
     15 H           2.6660    0.2308    0.0000 H       1  LIG1        0.0809
     16 H           1.4200    1.9458    0.0000 H       1  LIG1        0.0639
     17 H          -0.4195    2.1573    0.0000 H       1  LIG1        0.0815
     18 H          -2.0715    1.1846    0.0000 H       1  LIG1        0.1699
@<TRIPOS>BOND
     1     1     2    1
     2     2     3   ar
     3     3     4   ar
     4     4     5   ar
     5     5     6   ar
     6     6     7   ar
     7     7     8   ar
     8     8     9    2
     9     8    10   ar
    10    10    11   ar
    11     2    11   ar
    12     5    11   ar
    13     1    12    1
    14     1    13    1
    15     1    14    1
    16     3    15    1
    17     4    16    1
    18     6    17    1
    19     7    18    1
