@<TRIPOS>MOLECULE
O=c1ncc2c[nH]cc2[nH]1
 15 16 0 0 0
SMALL
GASTEIGER
Energy = 0

@<TRIPOS>ATOM
      1 O           1.7327    0.7172    0.0000 O.2     1  LIG1       -0.2447
      2 C           1.0182    0.3047    0.0000 C.ar    1  LIG1        0.3463
      3 N           0.3037    0.7172    0.0000 N.ar    1  LIG1       -0.3045
      4 C          -0.4107    0.3047    0.0000 C.ar    1  LIG1        0.0693
      5 C          -1.1954    0.5596    0.0000 C.ar    1  LIG1        0.0260
      6 N          -1.6803   -0.1078    0.0000 N.ar    1  LIG1       -0.3647
      7 C          -1.1954   -0.7752    0.0000 C.ar    1  LIG1        0.0123
      8 C          -0.4107   -0.5203    0.0000 C.ar    1  LIG1        0.0339
      9 C           0.3037   -0.9328    0.0000 C.ar    1  LIG1        0.0435
     10 N           1.0182   -0.5203    0.0000 N.ar    1  LIG1       -0.2008
     11 H           0.3037    1.7997    0.0000 H       1  LIG1        0.1705
     12 H          -1.5358    1.6072    0.0000 H       1  LIG1        0.0828
     13 H          -2.7628   -0.1078    0.0000 H       1  LIG1        0.1648
     14 H          -1.5358   -1.8228    0.0000 H       1  LIG1        0.0814
     15 H           0.3037   -2.0343    0.0000 H       1  LIG1        0.0838
@<TRIPOS>BOND
     1     1     2    2
     2     2     3   ar
     3     3     4   ar
     4     4     5   ar
     5     5     6   ar
     6     6     7   ar
     7     7     8   ar
     8     4     8   ar
     9     8     9   ar
    10     9    10   ar
    11     2    10   ar
    12     3    11    1
    13     5    12    1
    14     6    13    1
    15     7    14    1
    16     9    15    1
