@<TRIPOS>MOLECULE
Cn1c(=O)ncc2scnc12
 16 17 0 0 0
SMALL
GASTEIGER
Energy = 0

@<TRIPOS>ATOM
      1 C          -0.4231   -1.5156    0.0000 C.3     1  LIG1        0.0181
      2 N          -0.4231   -0.6906    0.0000 N.ar    1  LIG1       -0.2791
      3 C          -1.1376   -0.2781    0.0000 C.ar    1  LIG1        0.3497
      4 O          -1.8521   -0.6906    0.0000 O.2     1  LIG1       -0.2445
      5 N          -1.1376    0.5469    0.0000 N.ar    1  LIG1       -0.2001
      6 C          -0.4231    0.9594    0.0000 C.ar    1  LIG1        0.0503
      7 C           0.2914    0.5469    0.0000 C.ar    1  LIG1        0.0743
      8 C           0.2914   -0.2781    0.0000 C.ar    1  LIG1        0.1530
      9 N           1.0760   -0.5331    0.0000 N.ar    1  LIG1       -0.2295
     10 C           1.5609    0.1344    0.0000 C.ar    1  LIG1        0.0677
     11 S           1.0760    0.8018    0.0000 S.2     1  LIG1       -0.0723
     12 H          -1.4977   -1.8961    0.0000 H       1  LIG1        0.0458
     13 H           0.1354   -1.9103    0.9121 H       1  LIG1        0.0458
     14 H           0.1071   -1.8903   -0.9370 H       1  LIG1        0.0458
     15 H          -0.4231    2.0609    0.0000 H       1  LIG1        0.0844
     16 H           2.6624    0.1344    0.0000 H       1  LIG1        0.0908
@<TRIPOS>BOND
     1     1     2    1
     2     2     3   ar
     3     3     4    2
     4     3     5   ar
     5     5     6   ar
     6     6     7   ar
     7     7     8   ar
     8     2     8   ar
     9     8     9   ar
    10     9    10   ar
    11    10    11   ar
    12     7    11   ar
    13     1    12    1
    14     1    13    1
    15     1    14    1
    16     6    15    1
    17    10    16    1
