@<TRIPOS>MOLECULE
Cn1ccc2ccccc2c1=O
 21 22 0 0 0
SMALL
GASTEIGER
Energy = 0

@<TRIPOS>ATOM
      1 C           1.8768   -0.5776    0.0000 C.3     1  LIG1        0.0147
      2 N           1.1623   -0.1651    0.0000 N.ar    1  LIG1       -0.3177
      3 C           1.1623    0.6599    0.0000 C.ar    1  LIG1        0.0082
      4 C           0.4478    1.0724    0.0000 C.ar    1  LIG1       -0.0376
      5 C          -0.2666    0.6599    0.0000 C.ar    1  LIG1       -0.0113
      6 C          -0.9811    1.0724    0.0000 C.ar    1  LIG1       -0.0538
      7 C          -1.6956    0.6599    0.0000 C.ar    1  LIG1       -0.0612
      8 C          -1.6956   -0.1651    0.0000 C.ar    1  LIG1       -0.0610
      9 C          -0.9811   -0.5776    0.0000 C.ar    1  LIG1       -0.0488
     10 C          -0.2666   -0.1651    0.0000 C.ar    1  LIG1        0.0467
     11 C           0.4478   -0.5776    0.0000 C.ar    1  LIG1        0.2588
     12 O           0.4478   -1.4026    0.0000 O.2     1  LIG1       -0.2670
     13 H           2.7436    0.1628    0.0000 H       1  LIG1        0.0457
     14 H           1.9394   -1.2586   -0.9121 H       1  LIG1        0.0457
     15 H           1.9362   -1.2242    0.9370 H       1  LIG1        0.0457
     16 H           2.1162    1.2107    0.0000 H       1  LIG1        0.0810
     17 H           0.4478    2.1739    0.0000 H       1  LIG1        0.0638
     18 H          -0.9811    2.1739    0.0000 H       1  LIG1        0.0624
     19 H          -2.6495    1.2107    0.0000 H       1  LIG1        0.0618
     20 H          -2.6495   -0.7159    0.0000 H       1  LIG1        0.0618
     21 H          -0.9811   -1.6791    0.0000 H       1  LIG1        0.0625
@<TRIPOS>BOND
     1     1     2    1
     2     2     3   ar
     3     3     4   ar
     4     4     5   ar
     5     5     6   ar
     6     6     7   ar
     7     7     8   ar
     8     8     9   ar
     9     9    10   ar
    10     5    10   ar
    11    10    11   ar
    12     2    11   ar
    13    11    12    2
    14     1    13    1
    15     1    14    1
    16     1    15    1
    17     3    16    1
    18     4    17    1
    19     6    18    1
    20     7    19    1
    21     8    20    1
    22     9    21    1
