@<TRIPOS>MOLECULE
Cn1ccc2nc[nH]c(=O)c12
 18 19 0 0 0
SMALL
GASTEIGER
Energy = 0

@<TRIPOS>ATOM
      1 C           1.1736   -1.1400    0.0000 C.3     1  LIG1        0.0121
      2 N           0.9187   -0.3553    0.0000 N.ar    1  LIG1       -0.3443
      3 C           1.4036    0.3121    0.0000 C.ar    1  LIG1        0.0070
      4 C           0.9187    0.9795    0.0000 C.ar    1  LIG1       -0.0179
      5 C           0.1341    0.7246    0.0000 C.ar    1  LIG1        0.0956
      6 C           0.1341   -0.1004    0.0000 C.ar    1  LIG1        0.1325
      7 C          -0.5804   -0.5129    0.0000 C.ar    1  LIG1        0.2755
      8 O          -0.5804   -1.3379    0.0000 O.2     1  LIG1       -0.2655
      9 N          -1.2949   -0.1004    0.0000 N.ar    1  LIG1       -0.3117
     10 C          -1.2949    0.7246    0.0000 C.ar    1  LIG1        0.0967
     11 N          -0.5804    1.1371    0.0000 N.ar    1  LIG1       -0.2356
     12 H           2.3132   -1.1699    0.0000 H       1  LIG1        0.0456
     13 H           0.7644   -1.6879   -0.9121 H       1  LIG1        0.0456
     14 H           0.7851   -1.6602    0.9370 H       1  LIG1        0.0456
     15 H           2.5051    0.3121    0.0000 H       1  LIG1        0.0810
     16 H           1.2591    2.0271    0.0000 H       1  LIG1        0.0654
     17 H          -2.2324   -0.6417    0.0000 H       1  LIG1        0.1698
     18 H          -2.2488    1.2754    0.0000 H       1  LIG1        0.1028
@<TRIPOS>BOND
     1     1     2    1
     2     2     3   ar
     3     3     4   ar
     4     4     5   ar
     5     5     6   ar
     6     2     6   ar
     7     6     7   ar
     8     7     8    2
     9     7     9   ar
    10     9    10   ar
    11    10    11   ar
    12     5    11   ar
    13     1    12    1
    14     1    13    1
    15     1    14    1
    16     3    15    1
    17     4    16    1
    18     9    17    1
    19    10    18    1
