@<TRIPOS>MOLECULE
O=c1cc2occn2cn1
 14 15 0 0 0
SMALL
GASTEIGER
Energy = 0

@<TRIPOS>ATOM
      1 O           1.7542    0.7174    0.0000 O.2     1  LIG1       -0.2657
      2 C           1.0397    0.3049    0.0000 C.ar    1  LIG1        0.2766
      3 C           0.3252    0.7174    0.0000 C.ar    1  LIG1        0.0652
      4 C          -0.3892    0.3049    0.0000 C.ar    1  LIG1        0.2112
      5 O          -1.1738    0.5598    0.0000 O.2     1  LIG1       -0.4452
      6 C          -1.6588   -0.1076    0.0000 C.ar    1  LIG1        0.1108
      7 C          -1.1738   -0.7751    0.0000 C.ar    1  LIG1        0.0488
      8 N          -0.3892   -0.5201    0.0000 N.ar    1  LIG1       -0.2745
      9 C           0.3252   -0.9326    0.0000 C.ar    1  LIG1        0.1066
     10 N           1.0397   -0.5201    0.0000 N.ar    1  LIG1       -0.1988
     11 H           0.3252    1.8189    0.0000 H       1  LIG1        0.0726
     12 H          -2.7603   -0.1076    0.0000 H       1  LIG1        0.1045
     13 H          -1.5141   -1.8227    0.0000 H       1  LIG1        0.0845
     14 H           0.3252   -2.0341    0.0000 H       1  LIG1        0.1034
@<TRIPOS>BOND
     1     1     2    2
     2     2     3   ar
     3     3     4   ar
     4     4     5   ar
     5     5     6   ar
     6     6     7   ar
     7     7     8   ar
     8     4     8   ar
     9     8     9   ar
    10     9    10   ar
    11     2    10   ar
    12     3    11    1
    13     6    12    1
    14     7    13    1
    15     9    14    1
