@<TRIPOS>MOLECULE
c1nc2cncnc2s1
 12 13 0 0 0
SMALL
GASTEIGER
Energy = 0

@<TRIPOS>ATOM
      1 S           0.8172   -0.5714    0.0000 S.2     1  LIG1       -0.0558
      2 C           1.3021    0.0960    0.0000 C.ar    1  LIG1        0.0675
      3 N           0.8172    0.7634    0.0000 N.ar    1  LIG1       -0.2443
      4 C           0.0326    0.5085    0.0000 C.ar    1  LIG1        0.1146
      5 C          -0.6819    0.9210    0.0000 C.ar    1  LIG1        0.0573
      6 N          -1.3964    0.5085    0.0000 N.ar    1  LIG1       -0.2415
      7 C          -1.3964   -0.3165    0.0000 C.ar    1  LIG1        0.1173
      8 N          -0.6819   -0.7290    0.0000 N.ar    1  LIG1       -0.2267
      9 C           0.0326   -0.3165    0.0000 C.ar    1  LIG1        0.1309
     10 H           2.4036    0.0960    0.0000 H       1  LIG1        0.0908
     11 H          -0.6819    2.0225    0.0000 H       1  LIG1        0.0853
     12 H          -2.3503   -0.8673    0.0000 H       1  LIG1        0.1047
@<TRIPOS>BOND
     1     1     2   ar
     2     2     3   ar
     3     3     4   ar
     4     4     5   ar
     5     5     6   ar
     6     6     7   ar
     7     7     8   ar
     8     8     9   ar
     9     1     9   ar
    10     4     9   ar
    11     2    10    1
    12     5    11    1
    13     7    12    1
