@<TRIPOS>MOLECULE
O=c1[nH]nc2cc[nH]c(=O)n12
 15 16 0 0 0
SMALL
GASTEIGER
Energy = 0

@<TRIPOS>ATOM
      1 O           0.6406   -1.3127    0.0000 O.2     1  LIG1       -0.2460
      2 C           0.6406   -0.4877    0.0000 C.ar    1  LIG1        0.3362
      3 N           1.3550   -0.0752    0.0000 N.ar    1  LIG1       -0.3138
      4 C           1.3550    0.7498    0.0000 C.ar    1  LIG1        0.0099
      5 C           0.6406    1.1623    0.0000 C.ar    1  LIG1       -0.0008
      6 C          -0.0739    0.7498    0.0000 C.ar    1  LIG1        0.1671
      7 N          -0.8585    1.0047    0.0000 N.ar    1  LIG1       -0.1513
      8 N          -1.3434    0.3373    0.0000 N.ar    1  LIG1       -0.2259
      9 C          -0.8585   -0.3301    0.0000 C.ar    1  LIG1        0.3524
     10 O          -1.1135   -1.1148    0.0000 O.2     1  LIG1       -0.2445
     11 N          -0.0739   -0.0752    0.0000 N.ar    1  LIG1       -0.1947
     12 H           2.2925   -0.6164    0.0000 H       1  LIG1        0.1698
     13 H           2.3089    1.3005    0.0000 H       1  LIG1        0.0809
     14 H           0.6406    2.2638    0.0000 H       1  LIG1        0.0669
     15 H          -2.4259    0.3373    0.0000 H       1  LIG1        0.1937
@<TRIPOS>BOND
     1     1     2    2
     2     2     3   ar
     3     3     4   ar
     4     4     5   ar
     5     5     6   ar
     6     6     7   ar
     7     7     8   ar
     8     8     9   ar
     9     9    10    2
    10     9    11   ar
    11     2    11   ar
    12     6    11   ar
    13     3    12    1
    14     4    13    1
    15     5    14    1
    16     8    15    1
