@<TRIPOS>MOLECULE
c1cn2cnsc2n1
 11 12 0 0 0
SMALL
GASTEIGER
Energy = 0

@<TRIPOS>ATOM
      1 S           0.6479   -0.5537    0.0000 S.2     1  LIG1        0.0517
      2 N           1.1328    0.1138    0.0000 N.ar    1  LIG1       -0.1971
      3 C           0.6479    0.7812    0.0000 C.ar    1  LIG1        0.1106
      4 N          -0.1368    0.5263    0.0000 N.ar    1  LIG1       -0.2829
      5 C          -0.9214    0.7812    0.0000 C.ar    1  LIG1        0.0312
      6 C          -1.4063    0.1138    0.0000 C.ar    1  LIG1        0.0470
      7 N          -0.9214   -0.5537    0.0000 N.ar    1  LIG1       -0.2285
      8 C          -0.1368   -0.2987    0.0000 C.ar    1  LIG1        0.1966
      9 H           0.9883    1.8288    0.0000 H       1  LIG1        0.1040
     10 H          -1.2618    1.8288    0.0000 H       1  LIG1        0.0829
     11 H          -2.5078    0.1138    0.0000 H       1  LIG1        0.0845
@<TRIPOS>BOND
     1     1     2   ar
     2     2     3   ar
     3     3     4   ar
     4     4     5   ar
     5     5     6   ar
     6     6     7   ar
     7     7     8   ar
     8     1     8   ar
     9     4     8   ar
    10     3     9    1
    11     5    10    1
    12     6    11    1
