@<TRIPOS>MOLECULE
Cn1cnc(=O)c2nscc12
 16 17 0 0 0
SMALL
GASTEIGER
Energy = 0

@<TRIPOS>ATOM
      1 C           0.6241   -1.6937    0.0000 C.3     1  LIG1        0.0133
      2 N           0.6241   -0.8687    0.0000 N.ar    1  LIG1       -0.3325
      3 C           1.3386   -0.4562    0.0000 C.ar    1  LIG1        0.1001
      4 N           1.3386    0.3688    0.0000 N.ar    1  LIG1       -0.1975
      5 C           0.6241    0.7813    0.0000 C.ar    1  LIG1        0.2997
      6 O           0.6241    1.6063    0.0000 O.2     1  LIG1       -0.2634
      7 C          -0.0904    0.3688    0.0000 C.ar    1  LIG1        0.1623
      8 N          -0.8750    0.6237    0.0000 N.ar    1  LIG1       -0.2034
      9 S          -1.3599   -0.0437    0.0000 S.2     1  LIG1        0.0062
     10 C          -0.8750   -0.7112    0.0000 C.ar    1  LIG1        0.0201
     11 C          -0.0904   -0.4562    0.0000 C.ar    1  LIG1        0.0824
     12 H           1.6987   -2.0742    0.0000 H       1  LIG1        0.0456
     13 H           0.0656   -2.0884   -0.9121 H       1  LIG1        0.0456
     14 H           0.0939   -2.0684    0.9370 H       1  LIG1        0.0456
     15 H           2.2925   -1.0070    0.0000 H       1  LIG1        0.1030
     16 H          -1.2154   -1.7588    0.0000 H       1  LIG1        0.0730
@<TRIPOS>BOND
     1     1     2    1
     2     2     3   ar
     3     3     4   ar
     4     4     5   ar
     5     5     6    2
     6     5     7   ar
     7     7     8   ar
     8     8     9   ar
     9     9    10   ar
    10    10    11   ar
    11     2    11   ar
    12     7    11   ar
    13     1    12    1
    14     1    13    1
    15     1    14    1
    16     3    15    1
    17    10    16    1
