@<TRIPOS>MOLECULE
O=c1cc[nH]c(=O)[nH]1
 12 12 0 0 0
SMALL
GASTEIGER
Energy = 0

@<TRIPOS>ATOM
      1 O           0.2116   -1.5126    0.0000 O.2     1  LIG1       -0.2467
      2 C           0.2116   -0.6876    0.0000 C.ar    1  LIG1        0.3267
      3 N           0.9261   -0.2751    0.0000 N.ar    1  LIG1       -0.3143
      4 C           0.9261    0.5499    0.0000 C.ar    1  LIG1        0.0115
      5 C           0.2116    0.9624    0.0000 C.ar    1  LIG1        0.0189
      6 C          -0.5029    0.5499    0.0000 C.ar    1  LIG1        0.2539
      7 O          -1.2174    0.9624    0.0000 O.2     1  LIG1       -0.2677
      8 N          -0.5029   -0.2751    0.0000 N.ar    1  LIG1       -0.2751
      9 H           1.8636   -0.8164    0.0000 H       1  LIG1        0.1698
     10 H           1.8800    1.1007    0.0000 H       1  LIG1        0.0810
     11 H           0.2116    2.0639    0.0000 H       1  LIG1        0.0686
     12 H          -1.4404   -0.8164    0.0000 H       1  LIG1        0.1734
@<TRIPOS>BOND
     1     1     2    2
     2     2     3   ar
     3     3     4   ar
     4     4     5   ar
     5     5     6   ar
     6     6     7    2
     7     6     8   ar
     8     2     8   ar
     9     3     9    1
    10     4    10    1
    11     5    11    1
    12     8    12    1
