@<TRIPOS>MOLECULE
Cn1cc2cnncc2n1
 16 17 0 0 0
SMALL
GASTEIGER
Energy = 0

@<TRIPOS>ATOM
      1 C           2.0464    0.0104    0.0000 C.3     1  LIG1        0.0302
      2 N           1.2214    0.0104    0.0000 N.ar    1  LIG1       -0.2733
      3 C           0.7365    0.6778    0.0000 C.ar    1  LIG1        0.0345
      4 C          -0.0481    0.4229    0.0000 C.ar    1  LIG1        0.0411
      5 C          -0.7626    0.8354    0.0000 C.ar    1  LIG1        0.0606
      6 N          -1.4770    0.4229    0.0000 N.ar    1  LIG1       -0.1569
      7 N          -1.4770   -0.4021    0.0000 N.ar    1  LIG1       -0.1555
      8 C          -0.7626   -0.8146    0.0000 C.ar    1  LIG1        0.0776
      9 C          -0.0481   -0.4021    0.0000 C.ar    1  LIG1        0.1139
     10 N           0.7365   -0.6570    0.0000 N.ar    1  LIG1       -0.1698
     11 H           2.4269    1.0850    0.0000 H       1  LIG1        0.0473
     12 H           2.4411   -0.5481   -0.9121 H       1  LIG1        0.0473
     13 H           2.4211   -0.5198    0.9370 H       1  LIG1        0.0473
     14 H           1.0769    1.7254    0.0000 H       1  LIG1        0.0833
     15 H          -0.7626    1.9369    0.0000 H       1  LIG1        0.0855
     16 H          -0.7626   -1.9161    0.0000 H       1  LIG1        0.0870
@<TRIPOS>BOND
     1     1     2    1
     2     2     3   ar
     3     3     4   ar
     4     4     5   ar
     5     5     6   ar
     6     6     7   ar
     7     7     8   ar
     8     8     9   ar
     9     4     9   ar
    10     9    10   ar
    11     2    10   ar
    12     1    11    1
    13     1    12    1
    14     1    13    1
    15     3    14    1
    16     5    15    1
    17     8    16    1
