@<TRIPOS>MOLECULE
Cn1cnn2c(=O)ccnc12
 17 18 0 0 0
SMALL
GASTEIGER
Energy = 0

@<TRIPOS>ATOM
      1 C           1.1411   -1.5085    0.0000 C.3     1  LIG1        0.0161
      2 N           0.8862   -0.7239    0.0000 N.ar    1  LIG1       -0.3025
      3 C           1.3711   -0.0565    0.0000 C.ar    1  LIG1        0.1195
      4 N           0.8862    0.6110    0.0000 N.ar    1  LIG1       -0.1510
      5 N           0.1015    0.3560    0.0000 N.ar    1  LIG1       -0.1611
      6 C          -0.6129    0.7685    0.0000 C.ar    1  LIG1        0.2758
      7 O          -0.6129    1.5935    0.0000 O.2     1  LIG1       -0.2657
      8 C          -1.3274    0.3560    0.0000 C.ar    1  LIG1        0.0230
      9 C          -1.3274   -0.4690    0.0000 C.ar    1  LIG1        0.0366
     10 N          -0.6129   -0.8815    0.0000 N.ar    1  LIG1       -0.2202
     11 C           0.1015   -0.4690    0.0000 C.ar    1  LIG1        0.2358
     12 H           2.2807   -1.5384    0.0000 H       1  LIG1        0.0457
     13 H           0.7319   -2.0564   -0.9121 H       1  LIG1        0.0457
     14 H           0.7526   -2.0287    0.9370 H       1  LIG1        0.0457
     15 H           2.4726   -0.0565    0.0000 H       1  LIG1        0.1048
     16 H          -2.2813    0.9068    0.0000 H       1  LIG1        0.0687
     17 H          -2.2813   -1.0198    0.0000 H       1  LIG1        0.0832
@<TRIPOS>BOND
     1     1     2    1
     2     2     3   ar
     3     3     4   ar
     4     4     5   ar
     5     5     6   ar
     6     6     7    2
     7     6     8   ar
     8     8     9   ar
     9     9    10   ar
    10    10    11   ar
    11     2    11   ar
    12     5    11   ar
    13     1    12    1
    14     1    13    1
    15     1    14    1
    16     3    15    1
    17     8    16    1
    18     9    17    1
