@<TRIPOS>MOLECULE
Cn1ncc2ccnnc12
 16 17 0 0 0
SMALL
GASTEIGER
Energy = 0

@<TRIPOS>ATOM
      1 C           1.0793   -1.2862    0.0000 C.3     1  LIG1        0.0325
      2 N           0.8243   -0.5016    0.0000 N.ar    1  LIG1       -0.2481
      3 N           1.3092    0.1658    0.0000 N.ar    1  LIG1       -0.1774
      4 C           0.8243    0.8333    0.0000 C.ar    1  LIG1        0.0588
      5 C           0.0397    0.5783    0.0000 C.ar    1  LIG1        0.0418
      6 C          -0.6748    0.9908    0.0000 C.ar    1  LIG1       -0.0296
      7 C          -1.3892    0.5783    0.0000 C.ar    1  LIG1        0.0507
      8 N          -1.3892   -0.2467    0.0000 N.ar    1  LIG1       -0.1556
      9 N          -0.6748   -0.6592    0.0000 N.ar    1  LIG1       -0.1294
     10 C           0.0397   -0.2467    0.0000 C.ar    1  LIG1        0.1802
     11 H           2.2189   -1.3160    0.0000 H       1  LIG1        0.0473
     12 H           0.6702   -1.8342   -0.9121 H       1  LIG1        0.0473
     13 H           0.6908   -1.8065    0.9370 H       1  LIG1        0.0473
     14 H           1.1647    1.8809    0.0000 H       1  LIG1        0.0854
     15 H          -0.6748    2.0923    0.0000 H       1  LIG1        0.0641
     16 H          -2.3431    1.1290    0.0000 H       1  LIG1        0.0848
@<TRIPOS>BOND
     1     1     2    1
     2     2     3   ar
     3     3     4   ar
     4     4     5   ar
     5     5     6   ar
     6     6     7   ar
     7     7     8   ar
     8     8     9   ar
     9     9    10   ar
    10     2    10   ar
    11     5    10   ar
    12     1    11    1
    13     1    12    1
    14     1    13    1
    15     4    14    1
    16     6    15    1
    17     7    16    1
