@<TRIPOS>MOLECULE
c1cc2ccncn2n1
 14 15 0 0 0
SMALL
GASTEIGER
Energy = 0

@<TRIPOS>ATOM
      1 C           1.2652    0.4386    0.0000 C.ar    1  LIG1        0.0313
      2 C           0.5507    0.8511    0.0000 C.ar    1  LIG1       -0.0180
      3 C          -0.1637    0.4386    0.0000 C.ar    1  LIG1        0.0700
      4 C          -0.9483    0.6936    0.0000 C.ar    1  LIG1       -0.0164
      5 C          -1.4333    0.0261    0.0000 C.ar    1  LIG1        0.0504
      6 N          -0.9483   -0.6413    0.0000 N.ar    1  LIG1       -0.1734
      7 N          -0.1637   -0.3864    0.0000 N.ar    1  LIG1       -0.2217
      8 C           0.5507   -0.7989    0.0000 C.ar    1  LIG1        0.1180
      9 N           1.2652   -0.3864    0.0000 N.ar    1  LIG1       -0.2436
     10 H           2.2191    0.9894    0.0000 H       1  LIG1        0.0831
     11 H           0.5507    1.9526    0.0000 H       1  LIG1        0.0654
     12 H          -1.2886    1.7412    0.0000 H       1  LIG1        0.0654
     13 H          -2.5348    0.0261    0.0000 H       1  LIG1        0.0848
     14 H           0.5507   -1.9004    0.0000 H       1  LIG1        0.1047
@<TRIPOS>BOND
     1     1     2   ar
     2     2     3   ar
     3     3     4   ar
     4     4     5   ar
     5     5     6   ar
     6     6     7   ar
     7     3     7   ar
     8     7     8   ar
     9     8     9   ar
    10     1     9   ar
    11     1    10    1
    12     2    11    1
    13     4    12    1
    14     5    13    1
    15     8    14    1
