@<TRIPOS>MOLECULE
Cn1ccc2ocnc12
 15 16 0 0 0
SMALL
GASTEIGER
Energy = 0

@<TRIPOS>ATOM
      1 C           0.9590   -1.3018    0.0000 C.3     1  LIG1        0.0133
      2 N           0.7040   -0.5172    0.0000 N.ar    1  LIG1       -0.3323
      3 C           1.1889    0.1503    0.0000 C.ar    1  LIG1        0.0098
      4 C           0.7040    0.8177    0.0000 C.ar    1  LIG1        0.0006
      5 C          -0.0806    0.5628    0.0000 C.ar    1  LIG1        0.1734
      6 C          -0.0806   -0.2622    0.0000 C.ar    1  LIG1        0.1792
      7 N          -0.8652   -0.5172    0.0000 N.ar    1  LIG1       -0.1981
      8 C          -1.3501    0.1503    0.0000 C.ar    1  LIG1        0.1846
      9 O          -0.8652    0.8177    0.0000 O.2     1  LIG1       -0.4408
     10 H           2.0986   -1.3316    0.0000 H       1  LIG1        0.0456
     11 H           0.5499   -1.8498   -0.9121 H       1  LIG1        0.0456
     12 H           0.5705   -1.8221    0.9370 H       1  LIG1        0.0456
     13 H           2.2904    0.1503    0.0000 H       1  LIG1        0.0810
     14 H           1.0444    1.8653    0.0000 H       1  LIG1        0.0670
     15 H          -2.4516    0.1503    0.0000 H       1  LIG1        0.1255
@<TRIPOS>BOND
     1     1     2    1
     2     2     3   ar
     3     3     4   ar
     4     4     5   ar
     5     5     6   ar
     6     2     6   ar
     7     6     7   ar
     8     7     8   ar
     9     8     9   ar
    10     5     9   ar
    11     1    10    1
    12     1    11    1
    13     1    12    1
    14     3    13    1
    15     4    14    1
    16     8    15    1
