@<TRIPOS>MOLECULE
O=c1cc2ncccn2[nH]1
 15 16 0 0 0
SMALL
GASTEIGER
Energy = 0

@<TRIPOS>ATOM
      1 O           1.9696   -0.0039    0.0000 O.2     1  LIG1       -0.2664
      2 C           1.1446   -0.0039    0.0000 C.ar    1  LIG1        0.2670
      3 N           0.6596    0.6635    0.0000 N.ar    1  LIG1       -0.2578
      4 N          -0.1250    0.4086    0.0000 N.ar    1  LIG1       -0.2415
      5 C          -0.8395    0.8211    0.0000 C.ar    1  LIG1        0.0308
      6 C          -1.5539    0.4086    0.0000 C.ar    1  LIG1       -0.0254
      7 C          -1.5539   -0.4164    0.0000 C.ar    1  LIG1        0.0314
      8 N          -0.8395   -0.8289    0.0000 N.ar    1  LIG1       -0.2360
      9 C          -0.1250   -0.4164    0.0000 C.ar    1  LIG1        0.1572
     10 C           0.6596   -0.6714    0.0000 C.ar    1  LIG1        0.0482
     11 H           0.9941    1.6930    0.0000 H       1  LIG1        0.1906
     12 H          -0.8395    1.9226    0.0000 H       1  LIG1        0.0830
     13 H          -2.5078    0.9593    0.0000 H       1  LIG1        0.0648
     14 H          -2.5078   -0.9671    0.0000 H       1  LIG1        0.0831
     15 H           0.9999   -1.7190    0.0000 H       1  LIG1        0.0709
@<TRIPOS>BOND
     1     1     2    2
     2     2     3   ar
     3     3     4   ar
     4     4     5   ar
     5     5     6   ar
     6     6     7   ar
     7     7     8   ar
     8     8     9   ar
     9     4     9   ar
    10     9    10   ar
    11     2    10   ar
    12     3    11    1
    13     5    12    1
    14     6    13    1
    15     7    14    1
    16    10    15    1
