@<TRIPOS>MOLECULE
O=c1[nH]ccc2ocnc12
 14 15 0 0 0
SMALL
GASTEIGER
Energy = 0

@<TRIPOS>ATOM
      1 O          -0.5102   -1.4540    0.0000 O.2     1  LIG1       -0.2655
      2 C          -0.5102   -0.6290    0.0000 C.ar    1  LIG1        0.2780
      3 N          -1.2247   -0.2165    0.0000 N.ar    1  LIG1       -0.3271
      4 C          -1.2247    0.6085    0.0000 C.ar    1  LIG1        0.0085
      5 C          -0.5102    1.0210    0.0000 C.ar    1  LIG1       -0.0009
      6 C           0.2043    0.6085    0.0000 C.ar    1  LIG1        0.1617
      7 C           0.2043   -0.2165    0.0000 C.ar    1  LIG1        0.1732
      8 N           0.9889   -0.4714    0.0000 N.ar    1  LIG1       -0.2106
      9 C           1.4738    0.1960    0.0000 C.ar    1  LIG1        0.1833
     10 O           0.9889    0.8635    0.0000 O.2     1  LIG1       -0.4422
     11 H          -2.1622   -0.7578    0.0000 H       1  LIG1        0.1684
     12 H          -2.1786    1.1593    0.0000 H       1  LIG1        0.0809
     13 H          -0.5102    2.1225    0.0000 H       1  LIG1        0.0669
     14 H           2.5753    0.1960    0.0000 H       1  LIG1        0.1255
@<TRIPOS>BOND
     1     1     2    2
     2     2     3   ar
     3     3     4   ar
     4     4     5   ar
     5     5     6   ar
     6     6     7   ar
     7     2     7   ar
     8     7     8   ar
     9     8     9   ar
    10     9    10   ar
    11     6    10   ar
    12     3    11    1
    13     4    12    1
    14     5    13    1
    15     9    14    1
