@<TRIPOS>MOLECULE
Cn1c(=O)cnc2[nH]ncc12
 17 18 0 0 0
SMALL
GASTEIGER
Energy = 0

@<TRIPOS>ATOM
      1 C          -0.3049   -1.4301    0.0000 C.3     1  LIG1        0.0155
      2 N          -0.3049   -0.6051    0.0000 N.ar    1  LIG1       -0.3060
      3 C          -1.0193   -0.1926    0.0000 C.ar    1  LIG1        0.2698
      4 O          -1.7338   -0.6051    0.0000 O.2     1  LIG1       -0.2660
      5 C          -1.0193    0.6324    0.0000 C.ar    1  LIG1        0.0944
      6 N          -0.3049    1.0449    0.0000 N.ar    1  LIG1       -0.2294
      7 C           0.4096    0.6324    0.0000 C.ar    1  LIG1        0.1727
      8 C           0.4096   -0.1926    0.0000 C.ar    1  LIG1        0.1084
      9 C           1.1942   -0.4475    0.0000 C.ar    1  LIG1        0.0749
     10 N           1.6791    0.2199    0.0000 N.ar    1  LIG1       -0.1784
     11 N           1.1942    0.8873    0.0000 N.ar    1  LIG1       -0.2590
     12 H          -1.3795   -1.8106    0.0000 H       1  LIG1        0.0457
     13 H           0.2536   -1.8248    0.9121 H       1  LIG1        0.0457
     14 H           0.2253   -1.8048   -0.9370 H       1  LIG1        0.0457
     15 H          -1.9732    1.1831    0.0000 H       1  LIG1        0.0886
     16 H           1.5346   -1.4951    0.0000 H       1  LIG1        0.0870
     17 H           1.5287    1.9168    0.0000 H       1  LIG1        0.1906
@<TRIPOS>BOND
     1     1     2    1
     2     2     3   ar
     3     3     4    2
     4     3     5   ar
     5     5     6   ar
     6     6     7   ar
     7     7     8   ar
     8     2     8   ar
     9     8     9   ar
    10     9    10   ar
    11    10    11   ar
    12     7    11   ar
    13     1    12    1
    14     1    13    1
    15     1    14    1
    16     5    15    1
    17     9    16    1
    18    11    17    1
