@<TRIPOS>MOLECULE
c1cc2cnsc2o1
 11 12 0 0 0
SMALL
GASTEIGER
Energy = 0

@<TRIPOS>ATOM
      1 O           0.9086   -0.5360    0.0000 O.2     1  LIG1       -0.4544
      2 C           1.3935    0.1314    0.0000 C.ar    1  LIG1        0.0940
      3 C           0.9086    0.7988    0.0000 C.ar    1  LIG1       -0.0140
      4 C           0.1240    0.5439    0.0000 C.ar    1  LIG1        0.0472
      5 C           0.1240   -0.2811    0.0000 C.ar    1  LIG1        0.1914
      6 S          -0.6606   -0.5360    0.0000 S.2     1  LIG1        0.0499
      7 N          -1.1456    0.1314    0.0000 N.ar    1  LIG1       -0.2146
      8 C          -0.6606    0.7988    0.0000 C.ar    1  LIG1        0.0476
      9 H           2.4950    0.1314    0.0000 H       1  LIG1        0.1030
     10 H           1.2490    1.8464    0.0000 H       1  LIG1        0.0656
     11 H          -1.0009    1.8464    0.0000 H       1  LIG1        0.0844
@<TRIPOS>BOND
     1     1     2   ar
     2     2     3   ar
     3     3     4   ar
     4     4     5   ar
     5     1     5   ar
     6     5     6   ar
     7     6     7   ar
     8     7     8   ar
     9     4     8   ar
    10     2     9    1
    11     3    10    1
    12     8    11    1
