@<TRIPOS>MOLECULE
c1nn2cnnc2o1
 10 11 0 0 0
SMALL
GASTEIGER
Energy = 0

@<TRIPOS>ATOM
      1 O           0.7791   -0.6504    0.0000 O.2     1  LIG1       -0.4091
      2 C           1.2640    0.0170    0.0000 C.ar    1  LIG1        0.2047
      3 N           0.7791    0.6845    0.0000 N.ar    1  LIG1       -0.1310
      4 N          -0.0055    0.4295    0.0000 N.ar    1  LIG1       -0.1664
      5 C          -0.7901    0.6845    0.0000 C.ar    1  LIG1        0.1452
      6 N          -1.2751    0.0170    0.0000 N.ar    1  LIG1       -0.1328
      7 N          -0.7901   -0.6504    0.0000 N.ar    1  LIG1       -0.0903
      8 C          -0.0055   -0.3955    0.0000 C.ar    1  LIG1        0.3457
      9 H           2.3655    0.0170    0.0000 H       1  LIG1        0.1272
     10 H          -1.1304    1.7321    0.0000 H       1  LIG1        0.1068
@<TRIPOS>BOND
     1     1     2   ar
     2     2     3   ar
     3     3     4   ar
     4     4     5   ar
     5     5     6   ar
     6     6     7   ar
     7     7     8   ar
     8     1     8   ar
     9     4     8   ar
    10     2     9    1
    11     5    10    1
