@<TRIPOS>MOLECULE
O=c1ncc2nccnc2[nH]1
 15 16 0 0 0
SMALL
GASTEIGER
Energy = 0

@<TRIPOS>ATOM
      1 O           1.8955    0.7277    0.0000 O.2     1  LIG1       -0.2447
      2 C           1.1810    0.3152    0.0000 C.ar    1  LIG1        0.3474
      3 N           0.4666    0.7277    0.0000 N.ar    1  LIG1       -0.2893
      4 C          -0.2479    0.3152    0.0000 C.ar    1  LIG1        0.1619
      5 N          -0.9624    0.7277    0.0000 N.ar    1  LIG1       -0.2343
      6 C          -1.6768    0.3152    0.0000 C.ar    1  LIG1        0.0480
      7 C          -1.6768   -0.5098    0.0000 C.ar    1  LIG1        0.0465
      8 N          -0.9624   -0.9223    0.0000 N.ar    1  LIG1       -0.2489
      9 C          -0.2479   -0.5098    0.0000 C.ar    1  LIG1        0.1242
     10 C           0.4666   -0.9223    0.0000 C.ar    1  LIG1        0.0619
     11 N           1.1810   -0.5098    0.0000 N.ar    1  LIG1       -0.1993
     12 H           0.4666    1.8102    0.0000 H       1  LIG1        0.1720
     13 H          -2.6307    0.8659    0.0000 H       1  LIG1        0.0846
     14 H          -2.6307   -1.0605    0.0000 H       1  LIG1        0.0845
     15 H           0.4666   -2.0238    0.0000 H       1  LIG1        0.0854
@<TRIPOS>BOND
     1     1     2    2
     2     2     3   ar
     3     3     4   ar
     4     4     5   ar
     5     5     6   ar
     6     6     7   ar
     7     7     8   ar
     8     8     9   ar
     9     4     9   ar
    10     9    10   ar
    11    10    11   ar
    12     2    11   ar
    13     3    12    1
    14     6    13    1
    15     7    14    1
    16    10    15    1
