@<TRIPOS>MOLECULE
Cn1cnc(=O)c2n[nH]cc12
 17 18 0 0 0
SMALL
GASTEIGER
Energy = 0

@<TRIPOS>ATOM
      1 C           0.4536   -1.6992    0.0000 C.3     1  LIG1        0.0133
      2 N           0.4536   -0.8742    0.0000 N.ar    1  LIG1       -0.3318
      3 C           1.1681   -0.4617    0.0000 C.ar    1  LIG1        0.1002
      4 N           1.1681    0.3633    0.0000 N.ar    1  LIG1       -0.1975
      5 C           0.4536    0.7758    0.0000 C.ar    1  LIG1        0.3008
      6 O           0.4536    1.6008    0.0000 O.2     1  LIG1       -0.2634
      7 C          -0.2608    0.3633    0.0000 C.ar    1  LIG1        0.1747
      8 N          -1.0454    0.6182    0.0000 N.ar    1  LIG1       -0.1668
      9 N          -1.5304   -0.0492    0.0000 N.ar    1  LIG1       -0.2820
     10 C          -1.0454   -0.7166    0.0000 C.ar    1  LIG1        0.0467
     11 C          -0.2608   -0.4617    0.0000 C.ar    1  LIG1        0.0932
     12 H           1.5282   -2.0797    0.0000 H       1  LIG1        0.0456
     13 H          -0.1049   -2.0939   -0.9121 H       1  LIG1        0.0456
     14 H          -0.0766   -2.0739    0.9370 H       1  LIG1        0.0456
     15 H           2.1220   -1.0125    0.0000 H       1  LIG1        0.1030
     16 H          -2.6129   -0.0492    0.0000 H       1  LIG1        0.1883
     17 H          -1.3857   -1.7642    0.0000 H       1  LIG1        0.0845
@<TRIPOS>BOND
     1     1     2    1
     2     2     3   ar
     3     3     4   ar
     4     4     5   ar
     5     5     6    2
     6     5     7   ar
     7     7     8   ar
     8     8     9   ar
     9     9    10   ar
    10    10    11   ar
    11     2    11   ar
    12     7    11   ar
    13     1    12    1
    14     1    13    1
    15     1    14    1
    16     3    15    1
    17     9    16    1
    18    10    17    1
