@<TRIPOS>MOLECULE
Cn1cnc(=O)o1
 11 11 0 0 0
SMALL
GASTEIGER
Energy = 0

@<TRIPOS>ATOM
      1 C           1.3368    0.7628    0.0000 C.3     1  LIG1        0.0466
      2 N           0.6693    0.2779    0.0000 N.ar    1  LIG1       -0.1952
      3 O          -0.1153    0.5328    0.0000 O.2     1  LIG1       -0.3183
      4 C          -0.6002   -0.1346    0.0000 C.ar    1  LIG1        0.4603
      5 O          -1.4252   -0.1346    0.0000 O.2     1  LIG1       -0.2188
      6 N          -0.1153   -0.8021    0.0000 N.ar    1  LIG1       -0.1612
      7 C           0.6693   -0.5471    0.0000 C.ar    1  LIG1        0.1345
      8 H           1.0131    1.8559    0.0000 H       1  LIG1        0.0487
      9 H           1.9843    0.5429   -0.9121 H       1  LIG1        0.0487
     10 H           1.9516    0.5540    0.9370 H       1  LIG1        0.0487
     11 H           1.5605   -1.1945    0.0000 H       1  LIG1        0.1059
@<TRIPOS>BOND
     1     1     2    1
     2     2     3   ar
     3     3     4   ar
     4     4     5    2
     5     4     6   ar
     6     6     7   ar
     7     2     7   ar
     8     1     8    1
     9     1     9    1
    10     1    10    1
    11     7    11    1
