@<TRIPOS>MOLECULE
O=c1[nH]ncn2nccc12
 14 15 0 0 0
SMALL
GASTEIGER
Energy = 0

@<TRIPOS>ATOM
      1 O           0.4649   -1.4664    0.0000 O.2     1  LIG1       -0.2641
      2 C           0.4649   -0.6414    0.0000 C.ar    1  LIG1        0.2903
      3 N           1.1794   -0.2289    0.0000 N.ar    1  LIG1       -0.2401
      4 N           1.1794    0.5961    0.0000 N.ar    1  LIG1       -0.1594
      5 C           0.4649    1.0086    0.0000 C.ar    1  LIG1        0.1384
      6 N          -0.2496    0.5961    0.0000 N.ar    1  LIG1       -0.2147
      7 N          -1.0342    0.8510    0.0000 N.ar    1  LIG1       -0.1732
      8 C          -1.5191    0.1836    0.0000 C.ar    1  LIG1        0.0506
      9 C          -1.0342   -0.4839    0.0000 C.ar    1  LIG1       -0.0111
     10 C          -0.2496   -0.2289    0.0000 C.ar    1  LIG1        0.1340
     11 H           2.1169   -0.7702    0.0000 H       1  LIG1        0.1922
     12 H           0.4649    2.1101    0.0000 H       1  LIG1        0.1066
     13 H          -2.6206    0.1836    0.0000 H       1  LIG1        0.0848
     14 H          -1.3746   -1.5315    0.0000 H       1  LIG1        0.0656
@<TRIPOS>BOND
     1     1     2    2
     2     2     3   ar
     3     3     4   ar
     4     4     5   ar
     5     5     6   ar
     6     6     7   ar
     7     7     8   ar
     8     8     9   ar
     9     9    10   ar
    10     2    10   ar
    11     6    10   ar
    12     3    11    1
    13     5    12    1
    14     8    13    1
    15     9    14    1
