@<TRIPOS>MOLECULE
Cn1ccc2ccoc12
 16 17 0 0 0
SMALL
GASTEIGER
Energy = 0

@<TRIPOS>ATOM
      1 C           0.9438   -1.2642    0.0000 C.3     1  LIG1        0.0146
      2 N           0.6889   -0.4795    0.0000 N.ar    1  LIG1       -0.3211
      3 C           1.1738    0.1879    0.0000 C.ar    1  LIG1        0.0082
      4 C           0.6889    0.8553    0.0000 C.ar    1  LIG1       -0.0332
      5 C          -0.0957    0.6004    0.0000 C.ar    1  LIG1        0.0394
      6 C          -0.0957   -0.2246    0.0000 C.ar    1  LIG1        0.2077
      7 O          -0.8804   -0.4795    0.0000 O.2     1  LIG1       -0.4466
      8 C          -1.3653    0.1879    0.0000 C.ar    1  LIG1        0.0950
      9 C          -0.8804    0.8553    0.0000 C.ar    1  LIG1       -0.0145
     10 H           2.0834   -1.2941    0.0000 H       1  LIG1        0.0457
     11 H           0.5346   -1.8121   -0.9121 H       1  LIG1        0.0457
     12 H           0.5553   -1.7844    0.9370 H       1  LIG1        0.0457
     13 H           2.2753    0.1879    0.0000 H       1  LIG1        0.0810
     14 H           1.0293    1.9029    0.0000 H       1  LIG1        0.0640
     15 H          -2.4668    0.1879    0.0000 H       1  LIG1        0.1030
     16 H          -1.2208    1.9029    0.0000 H       1  LIG1        0.0656
@<TRIPOS>BOND
     1     1     2    1
     2     2     3   ar
     3     3     4   ar
     4     4     5   ar
     5     5     6   ar
     6     2     6   ar
     7     6     7   ar
     8     7     8   ar
     9     8     9   ar
    10     5     9   ar
    11     1    10    1
    12     1    11    1
    13     1    12    1
    14     3    13    1
    15     4    14    1
    16     8    15    1
    17     9    16    1
