@<TRIPOS>MOLECULE
c1nc2nnncc2s1
 11 12 0 0 0
SMALL
GASTEIGER
Energy = 0

@<TRIPOS>ATOM
      1 S           0.8377   -0.5910    0.0000 S.2     1  LIG1       -0.0721
      2 C           1.3226    0.0764    0.0000 C.ar    1  LIG1        0.0678
      3 N           0.8377    0.7439    0.0000 N.ar    1  LIG1       -0.2266
      4 C           0.0530    0.4889    0.0000 C.ar    1  LIG1        0.1922
      5 N          -0.6614    0.9014    0.0000 N.ar    1  LIG1       -0.1087
      6 N          -1.3759    0.4889    0.0000 N.ar    1  LIG1       -0.0413
      7 N          -1.3759   -0.3361    0.0000 N.ar    1  LIG1       -0.1365
      8 C          -0.6614   -0.7486    0.0000 C.ar    1  LIG1        0.0690
      9 C           0.0530   -0.3361    0.0000 C.ar    1  LIG1        0.0793
     10 H           2.4241    0.0764    0.0000 H       1  LIG1        0.0908
     11 H          -0.6614   -1.8501    0.0000 H       1  LIG1        0.0861
@<TRIPOS>BOND
     1     1     2   ar
     2     2     3   ar
     3     3     4   ar
     4     4     5   ar
     5     5     6   ar
     6     6     7   ar
     7     7     8   ar
     8     8     9   ar
     9     1     9   ar
    10     4     9   ar
    11     2    10    1
    12     8    11    1
