@<TRIPOS>MOLECULE
O=c1ccn2[nH]ccc2c1
 16 17 0 0 0
SMALL
GASTEIGER
Energy = 0

@<TRIPOS>ATOM
      1 O           1.7521   -0.7388    0.0000 O.2     1  LIG1       -0.2878
      2 C           1.0377   -0.3263    0.0000 C.ar    1  LIG1        0.1824
      3 C           1.0377    0.4987    0.0000 C.ar    1  LIG1        0.0032
      4 C           0.3232    0.9112    0.0000 C.ar    1  LIG1        0.0313
      5 N          -0.3913    0.4987    0.0000 N.ar    1  LIG1       -0.2622
      6 N          -1.1759    0.7537    0.0000 N.ar    1  LIG1       -0.3004
      7 C          -1.6608    0.0862    0.0000 C.ar    1  LIG1        0.0213
      8 C          -1.1759   -0.5812    0.0000 C.ar    1  LIG1       -0.0188
      9 C          -0.3913   -0.3263    0.0000 C.ar    1  LIG1        0.0683
     10 C           0.3232   -0.7388    0.0000 C.ar    1  LIG1        0.0105
     11 H           1.9916    1.0495    0.0000 H       1  LIG1        0.0671
     12 H           0.3232    2.0127    0.0000 H       1  LIG1        0.0831
     13 H          -1.5104    1.7832    0.0000 H       1  LIG1        0.1866
     14 H          -2.7623    0.0862    0.0000 H       1  LIG1        0.0823
     15 H          -1.5163   -1.6288    0.0000 H       1  LIG1        0.0654
     16 H           0.3232   -1.8403    0.0000 H       1  LIG1        0.0677
@<TRIPOS>BOND
     1     1     2    2
     2     2     3   ar
     3     3     4   ar
     4     4     5   ar
     5     5     6   ar
     6     6     7   ar
     7     7     8   ar
     8     8     9   ar
     9     5     9   ar
    10     9    10   ar
    11     2    10   ar
    12     3    11    1
    13     4    12    1
    14     6    13    1
    15     7    14    1
    16     8    15    1
    17    10    16    1
