@<TRIPOS>MOLECULE
Cn1[nH]c(=O)c2cnccc12
 18 19 0 0 0
SMALL
GASTEIGER
Energy = 0

@<TRIPOS>ATOM
      1 C           0.9483   -1.4892    0.0000 C.3     1  LIG1        0.0289
      2 N           0.6933   -0.7046    0.0000 N.ar    1  LIG1       -0.2862
      3 N           1.1782   -0.0372    0.0000 N.ar    1  LIG1       -0.2628
      4 C           0.6933    0.6303    0.0000 C.ar    1  LIG1        0.2739
      5 O           0.9483    1.4149    0.0000 O.2     1  LIG1       -0.2657
      6 C          -0.0913    0.3753    0.0000 C.ar    1  LIG1        0.0835
      7 C          -0.8058    0.7878    0.0000 C.ar    1  LIG1        0.0420
      8 N          -1.5202    0.3753    0.0000 N.ar    1  LIG1       -0.2624
      9 C          -1.5202   -0.4497    0.0000 C.ar    1  LIG1        0.0296
     10 C          -0.8058   -0.8622    0.0000 C.ar    1  LIG1       -0.0179
     11 C          -0.0913   -0.4497    0.0000 C.ar    1  LIG1        0.0732
     12 H           2.0879   -1.5190    0.0000 H       1  LIG1        0.0472
     13 H           0.5392   -2.0372   -0.9121 H       1  LIG1        0.0472
     14 H           0.5598   -2.0095    0.9370 H       1  LIG1        0.0472
     15 H           2.2607   -0.0372    0.0000 H       1  LIG1        0.1901
     16 H          -0.8058    1.8893    0.0000 H       1  LIG1        0.0838
     17 H          -2.4741   -1.0004    0.0000 H       1  LIG1        0.0830
     18 H          -0.8058   -1.9637    0.0000 H       1  LIG1        0.0654
@<TRIPOS>BOND
     1     1     2    1
     2     2     3   ar
     3     3     4   ar
     4     4     5    2
     5     4     6   ar
     6     6     7   ar
     7     7     8   ar
     8     8     9   ar
     9     9    10   ar
    10    10    11   ar
    11     2    11   ar
    12     6    11   ar
    13     1    12    1
    14     1    13    1
    15     1    14    1
    16     3    15    1
    17     7    16    1
    18     9    17    1
    19    10    18    1
