@<TRIPOS>MOLECULE
O=c1ccn2cncc2[nH]1
 15 16 0 0 0
SMALL
GASTEIGER
Energy = 0

@<TRIPOS>ATOM
      1 O           1.7546    0.7172    0.0000 O.2     1  LIG1       -0.2678
      2 C           1.0401    0.3047    0.0000 C.ar    1  LIG1        0.2516
      3 N           0.3257    0.7172    0.0000 N.ar    1  LIG1       -0.3072
      4 C          -0.3888    0.3047    0.0000 C.ar    1  LIG1        0.1376
      5 C          -1.1734    0.5596    0.0000 C.ar    1  LIG1        0.0702
      6 N          -1.6584   -0.1078    0.0000 N.ar    1  LIG1       -0.2415
      7 C          -1.1734   -0.7752    0.0000 C.ar    1  LIG1        0.1015
      8 N          -0.3888   -0.5203    0.0000 N.ar    1  LIG1       -0.2918
      9 C           0.3257   -0.9328    0.0000 C.ar    1  LIG1        0.0177
     10 C           1.0401   -0.5203    0.0000 C.ar    1  LIG1        0.0194
     11 H           0.3257    1.7997    0.0000 H       1  LIG1        0.1703
     12 H          -1.5137    1.6072    0.0000 H       1  LIG1        0.0867
     13 H          -1.5137   -1.8228    0.0000 H       1  LIG1        0.1032
     14 H           0.3257   -2.0343    0.0000 H       1  LIG1        0.0815
     15 H           1.9940   -1.0710    0.0000 H       1  LIG1        0.0686
@<TRIPOS>BOND
     1     1     2    2
     2     2     3   ar
     3     3     4   ar
     4     4     5   ar
     5     5     6   ar
     6     6     7   ar
     7     7     8   ar
     8     4     8   ar
     9     8     9   ar
    10     9    10   ar
    11     2    10   ar
    12     3    11    1
    13     5    12    1
    14     7    13    1
    15     9    14    1
    16    10    15    1
