@<TRIPOS>MOLECULE
O=c1[nH]cnn2cccc12
 15 16 0 0 0
SMALL
GASTEIGER
Energy = 0

@<TRIPOS>ATOM
      1 O           0.4600   -1.4597    0.0000 O.2     1  LIG1       -0.2656
      2 C           0.4600   -0.6347    0.0000 C.ar    1  LIG1        0.2754
      3 N           1.1745   -0.2222    0.0000 N.ar    1  LIG1       -0.3104
      4 C           1.1745    0.6028    0.0000 C.ar    1  LIG1        0.1170
      5 N           0.4600    1.0153    0.0000 N.ar    1  LIG1       -0.1567
      6 N          -0.2545    0.6028    0.0000 N.ar    1  LIG1       -0.2333
      7 C          -1.0391    0.8577    0.0000 C.ar    1  LIG1        0.0300
      8 C          -1.5240    0.1903    0.0000 C.ar    1  LIG1       -0.0414
      9 C          -1.0391   -0.4772    0.0000 C.ar    1  LIG1       -0.0295
     10 C          -0.2545   -0.2222    0.0000 C.ar    1  LIG1        0.1295
     11 H           2.1120   -0.7635    0.0000 H       1  LIG1        0.1699
     12 H           2.1284    1.1536    0.0000 H       1  LIG1        0.1046
     13 H          -1.3795    1.9053    0.0000 H       1  LIG1        0.0830
     14 H          -2.6255    0.1903    0.0000 H       1  LIG1        0.0633
     15 H          -1.3795   -1.5248    0.0000 H       1  LIG1        0.0641
@<TRIPOS>BOND
     1     1     2    2
     2     2     3   ar
     3     3     4   ar
     4     4     5   ar
     5     5     6   ar
     6     6     7   ar
     7     7     8   ar
     8     8     9   ar
     9     9    10   ar
    10     2    10   ar
    11     6    10   ar
    12     3    11    1
    13     4    12    1
    14     7    13    1
    15     8    14    1
    16     9    15    1
