@<TRIPOS>MOLECULE
c1ccc2n[nH]nc2c1
 14 15 0 0 0
SMALL
GASTEIGER
Energy = 0

@<TRIPOS>ATOM
      1 N           1.3723   -0.0000    0.0000 N.ar    1  LIG1       -0.1956
      2 N           0.8874    0.6674    0.0000 N.ar    1  LIG1       -0.1548
      3 C           0.1028    0.4125    0.0000 C.ar    1  LIG1        0.1125
      4 C          -0.6117    0.8250    0.0000 C.ar    1  LIG1       -0.0324
      5 C          -1.3262    0.4125    0.0000 C.ar    1  LIG1       -0.0596
      6 C          -1.3262   -0.4125    0.0000 C.ar    1  LIG1       -0.0596
      7 C          -0.6117   -0.8250    0.0000 C.ar    1  LIG1       -0.0324
      8 C           0.1028   -0.4125    0.0000 C.ar    1  LIG1        0.1125
      9 N           0.8874   -0.6674    0.0000 N.ar    1  LIG1       -0.1548
     10 H           2.4548    0.0000    0.0000 H       1  LIG1        0.2125
     11 H          -0.6117    1.9265    0.0000 H       1  LIG1        0.0640
     12 H          -2.2801    0.9633    0.0000 H       1  LIG1        0.0618
     13 H          -2.2801   -0.9633    0.0000 H       1  LIG1        0.0618
     14 H          -0.6117   -1.9265    0.0000 H       1  LIG1        0.0640
@<TRIPOS>BOND
     1     1     2   ar
     2     2     3   ar
     3     3     4   ar
     4     4     5   ar
     5     5     6   ar
     6     6     7   ar
     7     7     8   ar
     8     3     8   ar
     9     8     9   ar
    10     1     9   ar
    11     1    10    1
    12     4    11    1
    13     5    12    1
    14     6    13    1
    15     7    14    1
