@<TRIPOS>MOLECULE
Cn1sc2cccnc2c1=O
 17 18 0 0 0
SMALL
GASTEIGER
Energy = 0

@<TRIPOS>ATOM
      1 C           1.8370    0.0718    0.0000 C.3     1  LIG1        0.0221
      2 N           1.0120    0.0718    0.0000 N.ar    1  LIG1       -0.2797
      3 S           0.5271    0.7392    0.0000 S.2     1  LIG1       -0.0069
      4 C          -0.2575    0.4843    0.0000 C.ar    1  LIG1        0.0597
      5 C          -0.9720    0.8968    0.0000 C.ar    1  LIG1       -0.0430
      6 C          -1.6865    0.4843    0.0000 C.ar    1  LIG1       -0.0425
      7 C          -1.6865   -0.3407    0.0000 C.ar    1  LIG1        0.0285
      8 N          -0.9720   -0.7532    0.0000 N.ar    1  LIG1       -0.2489
      9 C          -0.2575   -0.3407    0.0000 C.ar    1  LIG1        0.1436
     10 C           0.5271   -0.5957    0.0000 C.ar    1  LIG1        0.2837
     11 O           0.7821   -1.3803    0.0000 O.2     1  LIG1       -0.2648
     12 H           2.2175    1.1464    0.0000 H       1  LIG1        0.0463
     13 H           2.2317   -0.4867   -0.9121 H       1  LIG1        0.0463
     14 H           2.2117   -0.4584    0.9370 H       1  LIG1        0.0463
     15 H          -0.9720    1.9983    0.0000 H       1  LIG1        0.0630
     16 H          -2.6404    1.0351    0.0000 H       1  LIG1        0.0633
     17 H          -2.6404   -0.8915    0.0000 H       1  LIG1        0.0830
@<TRIPOS>BOND
     1     1     2    1
     2     2     3   ar
     3     3     4   ar
     4     4     5   ar
     5     5     6   ar
     6     6     7   ar
     7     7     8   ar
     8     8     9   ar
     9     4     9   ar
    10     9    10   ar
    11     2    10   ar
    12    10    11    2
    13     1    12    1
    14     1    13    1
    15     1    14    1
    16     5    15    1
    17     6    16    1
    18     7    17    1
