@<TRIPOS>MOLECULE
c1cc2nncn2[nH]1
 12 13 0 0 0
SMALL
GASTEIGER
Energy = 0

@<TRIPOS>ATOM
      1 N           0.8090   -0.6595    0.0000 N.ar    1  LIG1       -0.2976
      2 C           1.2939    0.0079    0.0000 C.ar    1  LIG1        0.0230
      3 C           0.8090    0.6754    0.0000 C.ar    1  LIG1        0.0017
      4 C           0.0243    0.4204    0.0000 C.ar    1  LIG1        0.1770
      5 N          -0.7603    0.6754    0.0000 N.ar    1  LIG1       -0.1282
      6 N          -1.2452    0.0079    0.0000 N.ar    1  LIG1       -0.1357
      7 C          -0.7603   -0.6595    0.0000 C.ar    1  LIG1        0.1400
      8 N           0.0243   -0.4046    0.0000 N.ar    1  LIG1       -0.2228
      9 H           1.1435   -1.6890    0.0000 H       1  LIG1        0.1867
     10 H           2.3954    0.0079    0.0000 H       1  LIG1        0.0824
     11 H           1.1494    1.7230    0.0000 H       1  LIG1        0.0670
     12 H          -1.1007   -1.7071    0.0000 H       1  LIG1        0.1066
@<TRIPOS>BOND
     1     1     2   ar
     2     2     3   ar
     3     3     4   ar
     4     4     5   ar
     5     5     6   ar
     6     6     7   ar
     7     7     8   ar
     8     1     8   ar
     9     4     8   ar
    10     1     9    1
    11     2    10    1
    12     3    11    1
    13     7    12    1
