@<TRIPOS>MOLECULE
O=c1[nH]nnc2cc[nH]c12
 14 15 0 0 0
SMALL
GASTEIGER
Energy = 0

@<TRIPOS>ATOM
      1 O          -0.4541   -1.4525    0.0000 O.2     1  LIG1       -0.2641
      2 C          -0.4541   -0.6275    0.0000 C.ar    1  LIG1        0.2915
      3 N          -1.1686   -0.2150    0.0000 N.ar    1  LIG1       -0.2228
      4 N          -1.1686    0.6100    0.0000 N.ar    1  LIG1       -0.0648
      5 N          -0.4541    1.0225    0.0000 N.ar    1  LIG1       -0.1294
      6 C           0.2604    0.6100    0.0000 C.ar    1  LIG1        0.1177
      7 C           0.2604   -0.2150    0.0000 C.ar    1  LIG1        0.1333
      8 N           1.0450   -0.4699    0.0000 N.ar    1  LIG1       -0.3551
      9 C           1.5299    0.1975    0.0000 C.ar    1  LIG1        0.0044
     10 C           1.0450    0.8649    0.0000 C.ar    1  LIG1       -0.0163
     11 H          -2.1061   -0.7563    0.0000 H       1  LIG1        0.1939
     12 H           1.3795   -1.4994    0.0000 H       1  LIG1        0.1655
     13 H           2.6314    0.1975    0.0000 H       1  LIG1        0.0807
     14 H           1.3854    1.9125    0.0000 H       1  LIG1        0.0654
@<TRIPOS>BOND
     1     1     2    2
     2     2     3   ar
     3     3     4   ar
     4     4     5   ar
     5     5     6   ar
     6     6     7   ar
     7     2     7   ar
     8     7     8   ar
     9     8     9   ar
    10     9    10   ar
    11     6    10   ar
    12     3    11    1
    13     8    12    1
    14     9    13    1
    15    10    14    1
