@<TRIPOS>MOLECULE
c1nncc2n[nH]nc12
 12 13 0 0 0
SMALL
GASTEIGER
Energy = 0

@<TRIPOS>ATOM
      1 N           1.4172    0.0000    0.0000 N.ar    1  LIG1       -0.1955
      2 N           0.9322    0.6674    0.0000 N.ar    1  LIG1       -0.1532
      3 C           0.1476    0.4125    0.0000 C.ar    1  LIG1        0.1338
      4 C          -0.5669    0.8250    0.0000 C.ar    1  LIG1        0.0792
      5 N          -1.2813    0.4125    0.0000 N.ar    1  LIG1       -0.1554
      6 N          -1.2813   -0.4125    0.0000 N.ar    1  LIG1       -0.1554
      7 C          -0.5669   -0.8250    0.0000 C.ar    1  LIG1        0.0792
      8 C           0.1476   -0.4125    0.0000 C.ar    1  LIG1        0.1338
      9 N           0.9322   -0.6674    0.0000 N.ar    1  LIG1       -0.1532
     10 H           2.4997    0.0000    0.0000 H       1  LIG1        0.2125
     11 H          -0.5669    1.9265    0.0000 H       1  LIG1        0.0871
     12 H          -0.5669   -1.9265    0.0000 H       1  LIG1        0.0871
@<TRIPOS>BOND
     1     1     2   ar
     2     2     3   ar
     3     3     4   ar
     4     4     5   ar
     5     5     6   ar
     6     6     7   ar
     7     7     8   ar
     8     3     8   ar
     9     8     9   ar
    10     1     9   ar
    11     1    10    1
    12     4    11    1
    13     7    12    1
