@<TRIPOS>MOLECULE
O=c1cn[nH]c2nccn12
 14 15 0 0 0
SMALL
GASTEIGER
Energy = 0

@<TRIPOS>ATOM
      1 O           0.4757   -1.4727    0.0000 O.2     1  LIG1       -0.2655
      2 C           0.4757   -0.6477    0.0000 C.ar    1  LIG1        0.2778
      3 C           1.1902   -0.2352    0.0000 C.ar    1  LIG1        0.1126
      4 N           1.1902    0.5898    0.0000 N.ar    1  LIG1       -0.1740
      5 N           0.4757    1.0023    0.0000 N.ar    1  LIG1       -0.2457
      6 C          -0.2388    0.5898    0.0000 C.ar    1  LIG1        0.2318
      7 N          -1.0234    0.8448    0.0000 N.ar    1  LIG1       -0.2191
      8 C          -1.5083    0.1773    0.0000 C.ar    1  LIG1        0.0480
      9 C          -1.0234   -0.4901    0.0000 C.ar    1  LIG1        0.0342
     10 N          -0.2388   -0.2352    0.0000 N.ar    1  LIG1       -0.2500
     11 H           2.1441   -0.7860    0.0000 H       1  LIG1        0.0903
     12 H           0.4757    2.0848    0.0000 H       1  LIG1        0.1920
     13 H          -2.6098    0.1773    0.0000 H       1  LIG1        0.0846
     14 H          -1.3638   -1.5377    0.0000 H       1  LIG1        0.0830
@<TRIPOS>BOND
     1     1     2    2
     2     2     3   ar
     3     3     4   ar
     4     4     5   ar
     5     5     6   ar
     6     6     7   ar
     7     7     8   ar
     8     8     9   ar
     9     9    10   ar
    10     2    10   ar
    11     6    10   ar
    12     3    11    1
    13     5    12    1
    14     8    13    1
    15     9    14    1
