@<TRIPOS>MOLECULE
Cn1cnc(=O)c2ncncc12
 18 19 0 0 0
SMALL
GASTEIGER
Energy = 0

@<TRIPOS>ATOM
      1 C           0.5863   -1.6922    0.0000 C.3     1  LIG1        0.0133
      2 N           0.5863   -0.8672    0.0000 N.ar    1  LIG1       -0.3318
      3 C           1.3007   -0.4547    0.0000 C.ar    1  LIG1        0.1002
      4 N           1.3007    0.3703    0.0000 N.ar    1  LIG1       -0.1975
      5 C           0.5863    0.7828    0.0000 C.ar    1  LIG1        0.2991
      6 O           0.5863    1.6078    0.0000 O.2     1  LIG1       -0.2634
      7 C          -0.1282    0.3703    0.0000 C.ar    1  LIG1        0.1564
      8 N          -0.8427    0.7828    0.0000 N.ar    1  LIG1       -0.2284
      9 C          -1.5571    0.3703    0.0000 C.ar    1  LIG1        0.1169
     10 N          -1.5571   -0.4547    0.0000 N.ar    1  LIG1       -0.2416
     11 C          -0.8427   -0.8672    0.0000 C.ar    1  LIG1        0.0551
     12 C          -0.1282   -0.4547    0.0000 C.ar    1  LIG1        0.0921
     13 H           1.6609   -2.0727    0.0000 H       1  LIG1        0.0456
     14 H           0.0278   -2.0869   -0.9121 H       1  LIG1        0.0456
     15 H           0.0561   -2.0669    0.9370 H       1  LIG1        0.0456
     16 H           2.2546   -1.0054    0.0000 H       1  LIG1        0.1030
     17 H          -2.5110    0.9210    0.0000 H       1  LIG1        0.1047
     18 H          -0.8427   -1.9687    0.0000 H       1  LIG1        0.0852
@<TRIPOS>BOND
     1     1     2    1
     2     2     3   ar
     3     3     4   ar
     4     4     5   ar
     5     5     6    2
     6     5     7   ar
     7     7     8   ar
     8     8     9   ar
     9     9    10   ar
    10    10    11   ar
    11    11    12   ar
    12     2    12   ar
    13     7    12   ar
    14     1    13    1
    15     1    14    1
    16     1    15    1
    17     3    16    1
    18     9    17    1
    19    11    18    1
