@<TRIPOS>MOLECULE
Cn1cncc2[nH]c(=O)cc12
 18 19 0 0 0
SMALL
GASTEIGER
Energy = 0

@<TRIPOS>ATOM
      1 C           0.7484   -1.5141    0.0000 C.3     1  LIG1        0.0133
      2 N           0.7484   -0.6891    0.0000 N.ar    1  LIG1       -0.3331
      3 C           1.4629   -0.2766    0.0000 C.ar    1  LIG1        0.0961
      4 N           1.4629    0.5484    0.0000 N.ar    1  LIG1       -0.2434
      5 C           0.7484    0.9609    0.0000 C.ar    1  LIG1        0.0546
      6 C           0.0340    0.5484    0.0000 C.ar    1  LIG1        0.0842
      7 N          -0.7507    0.8033    0.0000 N.ar    1  LIG1       -0.3197
      8 C          -1.2356    0.1359    0.0000 C.ar    1  LIG1        0.2513
      9 O          -2.0606    0.1359    0.0000 O.2     1  LIG1       -0.2678
     10 C          -0.7507   -0.5316    0.0000 C.ar    1  LIG1        0.0283
     11 C           0.0340   -0.2766    0.0000 C.ar    1  LIG1        0.0730
     12 H           1.8230   -1.8946    0.0000 H       1  LIG1        0.0456
     13 H           0.1899   -1.9088   -0.9121 H       1  LIG1        0.0456
     14 H           0.2182   -1.8888    0.9370 H       1  LIG1        0.0456
     15 H           2.4168   -0.8274    0.0000 H       1  LIG1        0.1029
     16 H           0.7484    2.0624    0.0000 H       1  LIG1        0.0852
     17 H          -1.0852    1.8328    0.0000 H       1  LIG1        0.1690
     18 H          -1.0911   -1.5792    0.0000 H       1  LIG1        0.0693
@<TRIPOS>BOND
     1     1     2    1
     2     2     3   ar
     3     3     4   ar
     4     4     5   ar
     5     5     6   ar
     6     6     7   ar
     7     7     8   ar
     8     8     9    2
     9     8    10   ar
    10    10    11   ar
    11     2    11   ar
    12     6    11   ar
    13     1    12    1
    14     1    13    1
    15     1    14    1
    16     3    15    1
    17     5    16    1
    18     7    17    1
    19    10    18    1
