@<TRIPOS>MOLECULE
Cn1cnc2cncnc12
 16 17 0 0 0
SMALL
GASTEIGER
Energy = 0

@<TRIPOS>ATOM
      1 C           1.0868   -1.3095    0.0000 C.3     1  LIG1        0.0146
      2 N           0.8319   -0.5249    0.0000 N.ar    1  LIG1       -0.3181
      3 C           1.3168    0.1426    0.0000 C.ar    1  LIG1        0.0980
      4 N           0.8319    0.8100    0.0000 N.ar    1  LIG1       -0.2326
      5 C           0.0472    0.5551    0.0000 C.ar    1  LIG1        0.1259
      6 C          -0.6672    0.9676    0.0000 C.ar    1  LIG1        0.0583
      7 N          -1.3817    0.5551    0.0000 N.ar    1  LIG1       -0.2414
      8 C          -1.3817   -0.2699    0.0000 C.ar    1  LIG1        0.1184
      9 N          -0.6672   -0.6824    0.0000 N.ar    1  LIG1       -0.2161
     10 C           0.0472   -0.2699    0.0000 C.ar    1  LIG1        0.1632
     11 H           2.2264   -1.3394    0.0000 H       1  LIG1        0.0457
     12 H           0.6776   -1.8574   -0.9121 H       1  LIG1        0.0457
     13 H           0.6983   -1.8297    0.9370 H       1  LIG1        0.0457
     14 H           2.4183    0.1426    0.0000 H       1  LIG1        0.1029
     15 H          -0.6672    2.0691    0.0000 H       1  LIG1        0.0853
     16 H          -2.3356   -0.8207    0.0000 H       1  LIG1        0.1047
@<TRIPOS>BOND
     1     1     2    1
     2     2     3   ar
     3     3     4   ar
     4     4     5   ar
     5     5     6   ar
     6     6     7   ar
     7     7     8   ar
     8     8     9   ar
     9     9    10   ar
    10     2    10   ar
    11     5    10   ar
    12     1    11    1
    13     1    12    1
    14     1    13    1
    15     3    14    1
    16     6    15    1
    17     8    16    1
