@<TRIPOS>MOLECULE
Cn1ccc2nnnc2c1
 16 17 0 0 0
SMALL
GASTEIGER
Energy = 0

@<TRIPOS>ATOM
      1 C           1.8286   -0.7412    0.0000 C.3     1  LIG1        0.0114
      2 N           1.1142   -0.3287    0.0000 N.ar    1  LIG1       -0.3541
      3 C           1.1142    0.4963    0.0000 C.ar    1  LIG1        0.0064
      4 C           0.3997    0.9088    0.0000 C.ar    1  LIG1       -0.0162
      5 C          -0.3148    0.4963    0.0000 C.ar    1  LIG1        0.1177
      6 N          -1.0994    0.7512    0.0000 N.ar    1  LIG1       -0.1277
      7 N          -1.5843    0.0838    0.0000 N.ar    1  LIG1       -0.0421
      8 N          -1.0994   -0.5837    0.0000 N.ar    1  LIG1       -0.1263
      9 C          -0.3148   -0.3287    0.0000 C.ar    1  LIG1        0.1309
     10 C           0.3997   -0.7412    0.0000 C.ar    1  LIG1        0.0337
     11 H           2.6955   -0.0009    0.0000 H       1  LIG1        0.0455
     12 H           1.8911   -1.4222   -0.9121 H       1  LIG1        0.0455
     13 H           1.8880   -1.3878    0.9370 H       1  LIG1        0.0455
     14 H           2.0681    1.0471    0.0000 H       1  LIG1        0.0809
     15 H           0.3997    2.0103    0.0000 H       1  LIG1        0.0654
     16 H           0.3997   -1.8427    0.0000 H       1  LIG1        0.0832
@<TRIPOS>BOND
     1     1     2    1
     2     2     3   ar
     3     3     4   ar
     4     4     5   ar
     5     5     6   ar
     6     6     7   ar
     7     7     8   ar
     8     8     9   ar
     9     5     9   ar
    10     9    10   ar
    11     2    10   ar
    12     1    11    1
    13     1    12    1
    14     1    13    1
    15     3    14    1
    16     4    15    1
    17    10    16    1
