@<TRIPOS>MOLECULE
Cn1ncc2ccccc2c1=O
 20 21 0 0 0
SMALL
GASTEIGER
Energy = 0

@<TRIPOS>ATOM
      1 C           1.8615   -0.5863    0.0000 C.3     1  LIG1        0.0340
      2 N           1.1470   -0.1738    0.0000 N.ar    1  LIG1       -0.2321
      3 N           1.1470    0.6512    0.0000 N.ar    1  LIG1       -0.1763
      4 C           0.4326    1.0637    0.0000 C.ar    1  LIG1        0.0559
      5 C          -0.2819    0.6512    0.0000 C.ar    1  LIG1        0.0071
      6 C          -0.9964    1.0637    0.0000 C.ar    1  LIG1       -0.0524
      7 C          -1.7108    0.6512    0.0000 C.ar    1  LIG1       -0.0611
      8 C          -1.7108   -0.1738    0.0000 C.ar    1  LIG1       -0.0610
      9 C          -0.9964   -0.5863    0.0000 C.ar    1  LIG1       -0.0487
     10 C          -0.2819   -0.1738    0.0000 C.ar    1  LIG1        0.0495
     11 C           0.4326   -0.5863    0.0000 C.ar    1  LIG1        0.2747
     12 O           0.4326   -1.4113    0.0000 O.2     1  LIG1       -0.2656
     13 H           2.7283    0.1541    0.0000 H       1  LIG1        0.0474
     14 H           1.9241   -1.2673   -0.9121 H       1  LIG1        0.0474
     15 H           1.9209   -1.2329    0.9370 H       1  LIG1        0.0474
     16 H           0.4326    2.1652    0.0000 H       1  LIG1        0.0853
     17 H          -0.9964    2.1652    0.0000 H       1  LIG1        0.0624
     18 H          -2.6647    1.2019    0.0000 H       1  LIG1        0.0618
     19 H          -2.6647   -0.7245    0.0000 H       1  LIG1        0.0618
     20 H          -0.9964   -1.6878    0.0000 H       1  LIG1        0.0625
@<TRIPOS>BOND
     1     1     2    1
     2     2     3   ar
     3     3     4   ar
     4     4     5   ar
     5     5     6   ar
     6     6     7   ar
     7     7     8   ar
     8     8     9   ar
     9     9    10   ar
    10     5    10   ar
    11    10    11   ar
    12     2    11   ar
    13    11    12    2
    14     1    13    1
    15     1    14    1
    16     1    15    1
    17     4    16    1
    18     6    17    1
    19     7    18    1
    20     8    19    1
    21     9    20    1
