@<TRIPOS>MOLECULE
c1ncc2n[nH]nc2n1
 12 13 0 0 0
SMALL
GASTEIGER
Energy = 0

@<TRIPOS>ATOM
      1 N           1.4051    0.0070    0.0000 N.ar    1  LIG1       -0.1941
      2 N           0.9202    0.6744    0.0000 N.ar    1  LIG1       -0.1516
      3 C           0.1355    0.4195    0.0000 C.ar    1  LIG1        0.1492
      4 C          -0.5789    0.8320    0.0000 C.ar    1  LIG1        0.0601
      5 N          -1.2934    0.4195    0.0000 N.ar    1  LIG1       -0.2414
      6 C          -1.2934   -0.4055    0.0000 C.ar    1  LIG1        0.1185
      7 N          -0.5789   -0.8180    0.0000 N.ar    1  LIG1       -0.2131
      8 C           0.1355   -0.4055    0.0000 C.ar    1  LIG1        0.2042
      9 N           0.9202   -0.6605    0.0000 N.ar    1  LIG1       -0.1345
     10 H           2.4876    0.0070    0.0000 H       1  LIG1        0.2126
     11 H          -0.5789    1.9335    0.0000 H       1  LIG1        0.0853
     12 H          -2.2473   -0.9563    0.0000 H       1  LIG1        0.1047
@<TRIPOS>BOND
     1     1     2   ar
     2     2     3   ar
     3     3     4   ar
     4     4     5   ar
     5     5     6   ar
     6     6     7   ar
     7     7     8   ar
     8     3     8   ar
     9     8     9   ar
    10     1     9   ar
    11     1    10    1
    12     4    11    1
    13     6    12    1
