@<TRIPOS>MOLECULE
c1cc2ccncn2c1
 15 16 0 0 0
SMALL
GASTEIGER
Energy = 0

@<TRIPOS>ATOM
      1 C           1.4502   -0.0147    0.0000 C.ar    1  LIG1       -0.0432
      2 C           0.9652    0.6527    0.0000 C.ar    1  LIG1        0.0112
      3 N           0.1806    0.3978    0.0000 N.ar    1  LIG1       -0.3073
      4 C          -0.5339    0.8103    0.0000 C.ar    1  LIG1        0.1003
      5 N          -1.2483    0.3978    0.0000 N.ar    1  LIG1       -0.2451
      6 C          -1.2483   -0.4272    0.0000 C.ar    1  LIG1        0.0312
      7 C          -0.5339   -0.8397    0.0000 C.ar    1  LIG1       -0.0197
      8 C           0.1806   -0.4272    0.0000 C.ar    1  LIG1        0.0489
      9 C           0.9652   -0.6821    0.0000 C.ar    1  LIG1       -0.0364
     10 H           2.5517   -0.0147    0.0000 H       1  LIG1        0.0633
     11 H           1.3055    1.7003    0.0000 H       1  LIG1        0.0813
     12 H          -0.5339    1.9118    0.0000 H       1  LIG1        0.1032
     13 H          -2.2022   -0.9779    0.0000 H       1  LIG1        0.0831
     14 H          -0.5339   -1.9412    0.0000 H       1  LIG1        0.0653
     15 H           1.3055   -1.7297    0.0000 H       1  LIG1        0.0639
@<TRIPOS>BOND
     1     1     2   ar
     2     2     3   ar
     3     3     4   ar
     4     4     5   ar
     5     5     6   ar
     6     6     7   ar
     7     7     8   ar
     8     3     8   ar
     9     8     9   ar
    10     1     9   ar
    11     1    10    1
    12     2    11    1
    13     4    12    1
    14     6    13    1
    15     7    14    1
    16     9    15    1
