@<TRIPOS>MOLECULE
Cn1ccc2ccnnc12
 17 18 0 0 0
SMALL
GASTEIGER
Energy = 0

@<TRIPOS>ATOM
      1 C           1.1000   -1.2836    0.0000 C.3     1  LIG1        0.0133
      2 N           0.8450   -0.4990    0.0000 N.ar    1  LIG1       -0.3335
      3 C           1.3300    0.1685    0.0000 C.ar    1  LIG1        0.0068
      4 C           0.8450    0.8359    0.0000 C.ar    1  LIG1       -0.0348
      5 C           0.0604    0.5810    0.0000 C.ar    1  LIG1        0.0221
      6 C          -0.6541    0.9935    0.0000 C.ar    1  LIG1       -0.0311
      7 C          -1.3685    0.5810    0.0000 C.ar    1  LIG1        0.0507
      8 N          -1.3685   -0.2440    0.0000 N.ar    1  LIG1       -0.1557
      9 N          -0.6541   -0.6565    0.0000 N.ar    1  LIG1       -0.1309
     10 C           0.0604   -0.2440    0.0000 C.ar    1  LIG1        0.1627
     11 H           2.2396   -1.3134    0.0000 H       1  LIG1        0.0456
     12 H           0.6909   -1.8316   -0.9121 H       1  LIG1        0.0456
     13 H           0.7115   -1.8039    0.9370 H       1  LIG1        0.0456
     14 H           2.4315    0.1685    0.0000 H       1  LIG1        0.0809
     15 H           1.1853    1.8835    0.0000 H       1  LIG1        0.0639
     16 H          -0.6541    2.0950    0.0000 H       1  LIG1        0.0640
     17 H          -2.3224    1.1317    0.0000 H       1  LIG1        0.0848
@<TRIPOS>BOND
     1     1     2    1
     2     2     3   ar
     3     3     4   ar
     4     4     5   ar
     5     5     6   ar
     6     6     7   ar
     7     7     8   ar
     8     8     9   ar
     9     9    10   ar
    10     2    10   ar
    11     5    10   ar
    12     1    11    1
    13     1    12    1
    14     1    13    1
    15     3    14    1
    16     4    15    1
    17     6    16    1
    18     7    17    1
