@<TRIPOS>MOLECULE
O=c1ccn2ncnc2[nH]1
 14 15 0 0 0
SMALL
GASTEIGER
Energy = 0

@<TRIPOS>ATOM
      1 O           1.7650    0.7188    0.0000 O.2     1  LIG1       -0.2678
      2 C           1.0505    0.3063    0.0000 C.ar    1  LIG1        0.2528
      3 N           0.3361    0.7188    0.0000 N.ar    1  LIG1       -0.2914
      4 C          -0.3784    0.3063    0.0000 C.ar    1  LIG1        0.2332
      5 N          -1.1630    0.5613    0.0000 N.ar    1  LIG1       -0.1989
      6 C          -1.6479   -0.1062    0.0000 C.ar    1  LIG1        0.1405
      7 N          -1.1630   -0.7736    0.0000 N.ar    1  LIG1       -0.1524
      8 N          -0.3784   -0.5187    0.0000 N.ar    1  LIG1       -0.2055
      9 C           0.3361   -0.9312    0.0000 C.ar    1  LIG1        0.0380
     10 C           1.0505   -0.5187    0.0000 C.ar    1  LIG1        0.0211
     11 H           0.3361    1.8013    0.0000 H       1  LIG1        0.1718
     12 H          -2.7494   -0.1062    0.0000 H       1  LIG1        0.1066
     13 H           0.3361   -2.0327    0.0000 H       1  LIG1        0.0833
     14 H           2.0044   -1.0694    0.0000 H       1  LIG1        0.0687
@<TRIPOS>BOND
     1     1     2    2
     2     2     3   ar
     3     3     4   ar
     4     4     5   ar
     5     5     6   ar
     6     6     7   ar
     7     7     8   ar
     8     4     8   ar
     9     8     9   ar
    10     9    10   ar
    11     2    10   ar
    12     3    11    1
    13     6    12    1
    14     9    13    1
    15    10    14    1
