@<TRIPOS>MOLECULE
O=c1[nH]ncc2oncc12
 13 14 0 0 0
SMALL
GASTEIGER
Energy = 0

@<TRIPOS>ATOM
      1 O          -0.4992   -1.4730    0.0000 O.2     1  LIG1       -0.2656
      2 C          -0.4992   -0.6480    0.0000 C.ar    1  LIG1        0.2771
      3 N          -1.2137   -0.2355    0.0000 N.ar    1  LIG1       -0.2425
      4 N          -1.2137    0.5895    0.0000 N.ar    1  LIG1       -0.1756
      5 C          -0.4992    1.0020    0.0000 C.ar    1  LIG1        0.0935
      6 C           0.2153    0.5895    0.0000 C.ar    1  LIG1        0.1921
      7 C           0.2153   -0.2355    0.0000 C.ar    1  LIG1        0.1082
      8 C           0.9999   -0.4904    0.0000 C.ar    1  LIG1        0.0831
      9 N           1.4848    0.1770    0.0000 N.ar    1  LIG1       -0.0853
     10 O           0.9999    0.8445    0.0000 O.2     1  LIG1       -0.3529
     11 H          -2.1512   -0.7768    0.0000 H       1  LIG1        0.1921
     12 H          -0.4992    2.1035    0.0000 H       1  LIG1        0.0886
     13 H           1.3403   -1.5380    0.0000 H       1  LIG1        0.0872
@<TRIPOS>BOND
     1     1     2    2
     2     2     3   ar
     3     3     4   ar
     4     4     5   ar
     5     5     6   ar
     6     6     7   ar
     7     2     7   ar
     8     7     8   ar
     9     8     9   ar
    10     9    10   ar
    11     6    10   ar
    12     3    11    1
    13     5    12    1
    14     8    13    1
