@<TRIPOS>MOLECULE
c1nnn2ccnnc12
 12 13 0 0 0
SMALL
GASTEIGER
Energy = 0

@<TRIPOS>ATOM
      1 C           1.2801    0.4152    0.0000 C.ar    1  LIG1        0.0682
      2 C           0.5657    0.8277    0.0000 C.ar    1  LIG1        0.0529
      3 N          -0.1488    0.4152    0.0000 N.ar    1  LIG1       -0.1988
      4 N          -0.9334    0.6701    0.0000 N.ar    1  LIG1       -0.0593
      5 N          -1.4183    0.0027    0.0000 N.ar    1  LIG1       -0.1353
      6 C          -0.9334   -0.6648    0.0000 C.ar    1  LIG1        0.0974
      7 C          -0.1488   -0.4098    0.0000 C.ar    1  LIG1        0.1971
      8 N           0.5657   -0.8223    0.0000 N.ar    1  LIG1       -0.1280
      9 N           1.2801   -0.4098    0.0000 N.ar    1  LIG1       -0.1541
     10 H           2.2340    0.9659    0.0000 H       1  LIG1        0.0863
     11 H           0.5657    1.9292    0.0000 H       1  LIG1        0.0847
     12 H          -1.2738   -1.7124    0.0000 H       1  LIG1        0.0887
@<TRIPOS>BOND
     1     1     2   ar
     2     2     3   ar
     3     3     4   ar
     4     4     5   ar
     5     5     6   ar
     6     6     7   ar
     7     3     7   ar
     8     7     8   ar
     9     8     9   ar
    10     1     9   ar
    11     1    10    1
    12     2    11    1
    13     6    12    1
