@<TRIPOS>MOLECULE
O=c1ccnc2scnn12
 13 14 0 0 0
SMALL
GASTEIGER
Energy = 0

@<TRIPOS>ATOM
      1 O           0.6282   -1.5599    0.0000 O.2     1  LIG1       -0.2657
      2 C           0.6282   -0.7349    0.0000 C.ar    1  LIG1        0.2750
      3 C           1.3427   -0.3224    0.0000 C.ar    1  LIG1        0.0229
      4 C           1.3427    0.5026    0.0000 C.ar    1  LIG1        0.0356
      5 N           0.6282    0.9151    0.0000 N.ar    1  LIG1       -0.2298
      6 C          -0.0862    0.5026    0.0000 C.ar    1  LIG1        0.1985
      7 S          -0.8709    0.7575    0.0000 S.2     1  LIG1       -0.0361
      8 C          -1.3558    0.0901    0.0000 C.ar    1  LIG1        0.0889
      9 N          -0.8709   -0.5774    0.0000 N.ar    1  LIG1       -0.1626
     10 N          -0.0862   -0.3224    0.0000 N.ar    1  LIG1       -0.1713
     11 H           2.2966   -0.8732    0.0000 H       1  LIG1        0.0687
     12 H           2.2966    1.0534    0.0000 H       1  LIG1        0.0832
     13 H          -2.4573    0.0901    0.0000 H       1  LIG1        0.0926
@<TRIPOS>BOND
     1     1     2    2
     2     2     3   ar
     3     3     4   ar
     4     4     5   ar
     5     5     6   ar
     6     6     7   ar
     7     7     8   ar
     8     8     9   ar
     9     9    10   ar
    10     2    10   ar
    11     6    10   ar
    12     3    11    1
    13     4    12    1
    14     8    13    1
