@<TRIPOS>MOLECULE
O=c1[nH]c2ccccc2[nH]1
 16 17 0 0 0
SMALL
GASTEIGER
Energy = 0

@<TRIPOS>ATOM
      1 O           1.9442    0.0000    0.0000 O.2     1  LIG1       -0.2468
      2 C           1.1192    0.0000    0.0000 C.ar    1  LIG1        0.3250
      3 N           0.6343    0.6674    0.0000 N.ar    1  LIG1       -0.3061
      4 C          -0.1503    0.4125    0.0000 C.ar    1  LIG1        0.0668
      5 C          -0.8648    0.8250    0.0000 C.ar    1  LIG1       -0.0362
      6 C          -1.5792    0.4125    0.0000 C.ar    1  LIG1       -0.0597
      7 C          -1.5792   -0.4125    0.0000 C.ar    1  LIG1       -0.0597
      8 C          -0.8648   -0.8250    0.0000 C.ar    1  LIG1       -0.0362
      9 C          -0.1503   -0.4125    0.0000 C.ar    1  LIG1        0.0668
     10 N           0.6343   -0.6674    0.0000 N.ar    1  LIG1       -0.3061
     11 H           0.9688    1.6969    0.0000 H       1  LIG1        0.1704
     12 H          -0.8648    1.9265    0.0000 H       1  LIG1        0.0639
     13 H          -2.5331    0.9632    0.0000 H       1  LIG1        0.0618
     14 H          -2.5331   -0.9632    0.0000 H       1  LIG1        0.0618
     15 H          -0.8648   -1.9265    0.0000 H       1  LIG1        0.0639
     16 H           0.9688   -1.6969    0.0000 H       1  LIG1        0.1704
@<TRIPOS>BOND
     1     1     2    2
     2     2     3   ar
     3     3     4   ar
     4     4     5   ar
     5     5     6   ar
     6     6     7   ar
     7     7     8   ar
     8     8     9   ar
     9     4     9   ar
    10     9    10   ar
    11     2    10   ar
    12     3    11    1
    13     5    12    1
    14     6    13    1
    15     7    14    1
    16     8    15    1
    17    10    16    1
