@<TRIPOS>MOLECULE
c1nc2conc2[nH]1
 11 12 0 0 0
SMALL
GASTEIGER
Energy = 0

@<TRIPOS>ATOM
      1 N           0.8176   -0.6549    0.0000 N.ar    1  LIG1       -0.3266
      2 C           1.3025    0.0126    0.0000 C.ar    1  LIG1        0.0958
      3 N           0.8176    0.6800    0.0000 N.ar    1  LIG1       -0.2310
      4 C           0.0330    0.4251    0.0000 C.ar    1  LIG1        0.1481
      5 C          -0.7516    0.6800    0.0000 C.ar    1  LIG1        0.1517
      6 O          -1.2366    0.0126    0.0000 O.2     1  LIG1       -0.3587
      7 N          -0.7516   -0.6549    0.0000 N.ar    1  LIG1       -0.0584
      8 C           0.0330   -0.3999    0.0000 C.ar    1  LIG1        0.2002
      9 H           1.1521   -1.6844    0.0000 H       1  LIG1        0.1683
     10 H           2.4040    0.0126    0.0000 H       1  LIG1        0.1027
     11 H          -1.0919    1.7276    0.0000 H       1  LIG1        0.1080
@<TRIPOS>BOND
     1     1     2   ar
     2     2     3   ar
     3     3     4   ar
     4     4     5   ar
     5     5     6   ar
     6     6     7   ar
     7     7     8   ar
     8     1     8   ar
     9     4     8   ar
    10     1     9    1
    11     2    10    1
    12     5    11    1
