@<TRIPOS>MOLECULE
c1nc2nncn2s1
 10 11 0 0 0
SMALL
GASTEIGER
Energy = 0

@<TRIPOS>ATOM
      1 S           0.6783   -0.5744    0.0000 S.2     1  LIG1        0.0091
      2 C           1.1632    0.0930    0.0000 C.ar    1  LIG1        0.0856
      3 N           0.6783    0.7604    0.0000 N.ar    1  LIG1       -0.2100
      4 C          -0.1064    0.5055    0.0000 C.ar    1  LIG1        0.2621
      5 N          -0.8910    0.7604    0.0000 N.ar    1  LIG1       -0.1081
      6 N          -1.3759    0.0930    0.0000 N.ar    1  LIG1       -0.1351
      7 C          -0.8910   -0.5744    0.0000 C.ar    1  LIG1        0.1319
      8 N          -0.1064   -0.3195    0.0000 N.ar    1  LIG1       -0.2336
      9 H           2.2647    0.0930    0.0000 H       1  LIG1        0.0923
     10 H          -1.2314   -1.6220    0.0000 H       1  LIG1        0.1057
@<TRIPOS>BOND
     1     1     2   ar
     2     2     3   ar
     3     3     4   ar
     4     4     5   ar
     5     5     6   ar
     6     6     7   ar
     7     7     8   ar
     8     1     8   ar
     9     4     8   ar
    10     2     9    1
    11     7    10    1
