@<TRIPOS>MOLECULE
O=c1ncnc2ncncn12
 14 15 0 0 0
SMALL
GASTEIGER
Energy = 0

@<TRIPOS>ATOM
      1 O           0.6362   -1.4749    0.0000 O.2     1  LIG1       -0.2439
      2 C           0.6362   -0.6499    0.0000 C.ar    1  LIG1        0.3577
      3 N           1.3507   -0.2374    0.0000 N.ar    1  LIG1       -0.1810
      4 C           1.3507    0.5876    0.0000 C.ar    1  LIG1        0.1252
      5 N           0.6362    1.0001    0.0000 N.ar    1  LIG1       -0.2000
      6 C          -0.0782    0.5876    0.0000 C.ar    1  LIG1        0.2426
      7 N          -0.7927    1.0001    0.0000 N.ar    1  LIG1       -0.2002
      8 C          -1.5072    0.5876    0.0000 C.ar    1  LIG1        0.1214
      9 N          -1.5072   -0.2374    0.0000 N.ar    1  LIG1       -0.2253
     10 C          -0.7927   -0.6499    0.0000 C.ar    1  LIG1        0.1091
     11 N          -0.0782   -0.2374    0.0000 N.ar    1  LIG1       -0.2189
     12 H           2.3046    1.1384    0.0000 H       1  LIG1        0.1050
     13 H          -2.4611    1.1384    0.0000 H       1  LIG1        0.1048
     14 H          -0.7927   -1.7514    0.0000 H       1  LIG1        0.1035
@<TRIPOS>BOND
     1     1     2    2
     2     2     3   ar
     3     3     4   ar
     4     4     5   ar
     5     5     6   ar
     6     6     7   ar
     7     7     8   ar
     8     8     9   ar
     9     9    10   ar
    10    10    11   ar
    11     2    11   ar
    12     6    11   ar
    13     4    12    1
    14     8    13    1
    15    10    14    1
