@<TRIPOS>MOLECULE
c1nsc2cnnnc12
 11 12 0 0 0
SMALL
GASTEIGER
Energy = 0

@<TRIPOS>ATOM
      1 S           0.8306   -0.5812    0.0000 S.2     1  LIG1        0.0148
      2 N           1.3155    0.0862    0.0000 N.ar    1  LIG1       -0.2159
      3 C           0.8306    0.7537    0.0000 C.ar    1  LIG1        0.0645
      4 C           0.0459    0.4987    0.0000 C.ar    1  LIG1        0.1230
      5 N          -0.6685    0.9112    0.0000 N.ar    1  LIG1       -0.1272
      6 N          -1.3830    0.4987    0.0000 N.ar    1  LIG1       -0.0427
      7 N          -1.3830   -0.3263    0.0000 N.ar    1  LIG1       -0.1366
      8 C          -0.6685   -0.7388    0.0000 C.ar    1  LIG1        0.0689
      9 C           0.0459   -0.3263    0.0000 C.ar    1  LIG1        0.0791
     10 H           1.1710    1.8013    0.0000 H       1  LIG1        0.0859
     11 H          -0.6685   -1.8403    0.0000 H       1  LIG1        0.0861
@<TRIPOS>BOND
     1     1     2   ar
     2     2     3   ar
     3     3     4   ar
     4     4     5   ar
     5     5     6   ar
     6     6     7   ar
     7     7     8   ar
     8     8     9   ar
     9     1     9   ar
    10     4     9   ar
    11     3    10    1
    12     8    11    1
