@<TRIPOS>MOLECULE
Cn1sc2ncncc2c1=O
 16 17 0 0 0
SMALL
GASTEIGER
Energy = 0

@<TRIPOS>ATOM
      1 C           1.8578    0.0556    0.0000 C.3     1  LIG1        0.0221
      2 N           1.0328    0.0556    0.0000 N.ar    1  LIG1       -0.2798
      3 S           0.5479    0.7231    0.0000 S.2     1  LIG1        0.0119
      4 C          -0.2367    0.4681    0.0000 C.ar    1  LIG1        0.1329
      5 N          -0.9512    0.8806    0.0000 N.ar    1  LIG1       -0.2267
      6 C          -1.6657    0.4681    0.0000 C.ar    1  LIG1        0.1172
      7 N          -1.6657   -0.3569    0.0000 N.ar    1  LIG1       -0.2429
      8 C          -0.9512   -0.7694    0.0000 C.ar    1  LIG1        0.0443
      9 C          -0.2367   -0.3569    0.0000 C.ar    1  LIG1        0.0915
     10 C           0.5479   -0.6118    0.0000 C.ar    1  LIG1        0.2684
     11 O           0.8028   -1.3964    0.0000 O.2     1  LIG1       -0.2664
     12 H           2.2383    1.1302    0.0000 H       1  LIG1        0.0463
     13 H           2.2525   -0.5029   -0.9121 H       1  LIG1        0.0463
     14 H           2.2325   -0.4746    0.9370 H       1  LIG1        0.0463
     15 H          -2.6196    1.0189    0.0000 H       1  LIG1        0.1047
     16 H          -0.9512   -1.8709    0.0000 H       1  LIG1        0.0839
@<TRIPOS>BOND
     1     1     2    1
     2     2     3   ar
     3     3     4   ar
     4     4     5   ar
     5     5     6   ar
     6     6     7   ar
     7     7     8   ar
     8     8     9   ar
     9     4     9   ar
    10     9    10   ar
    11     2    10   ar
    12    10    11    2
    13     1    12    1
    14     1    13    1
    15     1    14    1
    16     6    15    1
    17     8    16    1
