@<TRIPOS>MOLECULE
O=c1nc[nH]c2occc12
 14 15 0 0 0
SMALL
GASTEIGER
Energy = 0

@<TRIPOS>ATOM
      1 O          -0.4875   -1.4765    0.0000 O.2     1  LIG1       -0.2650
      2 C          -0.4875   -0.6515    0.0000 C.ar    1  LIG1        0.2839
      3 N          -1.2020   -0.2390    0.0000 N.ar    1  LIG1       -0.1989
      4 C          -1.2020    0.5860    0.0000 C.ar    1  LIG1        0.0999
      5 N          -0.4875    0.9985    0.0000 N.ar    1  LIG1       -0.3162
      6 C           0.2269    0.5860    0.0000 C.ar    1  LIG1        0.2118
      7 C           0.2269   -0.2390    0.0000 C.ar    1  LIG1        0.1040
      8 C           1.0115   -0.4940    0.0000 C.ar    1  LIG1       -0.0092
      9 C           1.4965    0.1735    0.0000 C.ar    1  LIG1        0.0952
     10 O           1.0115    0.8409    0.0000 O.2     1  LIG1       -0.4466
     11 H          -2.1559    1.1368    0.0000 H       1  LIG1        0.1029
     12 H          -0.4875    2.0810    0.0000 H       1  LIG1        0.1697
     13 H           1.3518   -1.5416    0.0000 H       1  LIG1        0.0657
     14 H           2.5980    0.1735    0.0000 H       1  LIG1        0.1030
@<TRIPOS>BOND
     1     1     2    2
     2     2     3   ar
     3     3     4   ar
     4     4     5   ar
     5     5     6   ar
     6     6     7   ar
     7     2     7   ar
     8     7     8   ar
     9     8     9   ar
    10     9    10   ar
    11     6    10   ar
    12     4    11    1
    13     5    12    1
    14     8    13    1
    15     9    14    1
