@<TRIPOS>MOLECULE
Cn1cnc2nccnc12
 16 17 0 0 0
SMALL
GASTEIGER
Energy = 0

@<TRIPOS>ATOM
      1 C           1.0757   -1.3159    0.0000 C.3     1  LIG1        0.0147
      2 N           0.8207   -0.5313    0.0000 N.ar    1  LIG1       -0.3168
      3 C           1.3057    0.1362    0.0000 C.ar    1  LIG1        0.0997
      4 N           0.8207    0.8036    0.0000 N.ar    1  LIG1       -0.2150
      5 C           0.0361    0.5487    0.0000 C.ar    1  LIG1        0.1974
      6 N          -0.6784    0.9612    0.0000 N.ar    1  LIG1       -0.2316
      7 C          -1.3928    0.5487    0.0000 C.ar    1  LIG1        0.0482
      8 C          -1.3928   -0.2763    0.0000 C.ar    1  LIG1        0.0481
      9 N          -0.6784   -0.6888    0.0000 N.ar    1  LIG1       -0.2329
     10 C           0.0361   -0.2763    0.0000 C.ar    1  LIG1        0.1793
     11 H           2.2153   -1.3457    0.0000 H       1  LIG1        0.0457
     12 H           0.6666   -1.8639   -0.9121 H       1  LIG1        0.0457
     13 H           0.6872   -1.8362    0.9370 H       1  LIG1        0.0457
     14 H           2.4072    0.1362    0.0000 H       1  LIG1        0.1030
     15 H          -2.3467    1.0994    0.0000 H       1  LIG1        0.0846
     16 H          -2.3467   -0.8270    0.0000 H       1  LIG1        0.0846
@<TRIPOS>BOND
     1     1     2    1
     2     2     3   ar
     3     3     4   ar
     4     4     5   ar
     5     5     6   ar
     6     6     7   ar
     7     7     8   ar
     8     8     9   ar
     9     9    10   ar
    10     2    10   ar
    11     5    10   ar
    12     1    11    1
    13     1    12    1
    14     1    13    1
    15     3    14    1
    16     7    15    1
    17     8    16    1
