@<TRIPOS>MOLECULE
c1nsc2cncnc12
 12 13 0 0 0
SMALL
GASTEIGER
Energy = 0

@<TRIPOS>ATOM
      1 S           0.8100   -0.5738    0.0000 S.2     1  LIG1        0.0147
      2 N           1.2949    0.0937    0.0000 N.ar    1  LIG1       -0.2159
      3 C           0.8100    0.7611    0.0000 C.ar    1  LIG1        0.0627
      4 C           0.0253    0.5062    0.0000 C.ar    1  LIG1        0.1008
      5 N          -0.6891    0.9187    0.0000 N.ar    1  LIG1       -0.2333
      6 C          -1.4036    0.5062    0.0000 C.ar    1  LIG1        0.1167
      7 N          -1.4036   -0.3188    0.0000 N.ar    1  LIG1       -0.2425
      8 C          -0.6891   -0.7313    0.0000 C.ar    1  LIG1        0.0465
      9 C           0.0253   -0.3188    0.0000 C.ar    1  LIG1        0.0756
     10 H           1.1504    1.8087    0.0000 H       1  LIG1        0.0858
     11 H          -2.3575    1.0570    0.0000 H       1  LIG1        0.1047
     12 H          -0.6891   -1.8328    0.0000 H       1  LIG1        0.0842
@<TRIPOS>BOND
     1     1     2   ar
     2     2     3   ar
     3     3     4   ar
     4     4     5   ar
     5     5     6   ar
     6     6     7   ar
     7     7     8   ar
     8     8     9   ar
     9     1     9   ar
    10     4     9   ar
    11     3    10    1
    12     6    11    1
    13     8    12    1
