@<TRIPOS>MOLECULE
c1cc2ccnnc2[nH]1
 14 15 0 0 0
SMALL
GASTEIGER
Energy = 0

@<TRIPOS>ATOM
      1 N           0.9608   -0.6341    0.0000 N.ar    1  LIG1       -0.3444
      2 C           1.4458    0.0333    0.0000 C.ar    1  LIG1        0.0042
      3 C           0.9608    0.7008    0.0000 C.ar    1  LIG1       -0.0350
      4 C           0.1762    0.4458    0.0000 C.ar    1  LIG1        0.0219
      5 C          -0.5382    0.8583    0.0000 C.ar    1  LIG1       -0.0311
      6 C          -1.2527    0.4458    0.0000 C.ar    1  LIG1        0.0507
      7 N          -1.2527   -0.3792    0.0000 N.ar    1  LIG1       -0.1557
      8 N          -0.5382   -0.7917    0.0000 N.ar    1  LIG1       -0.1311
      9 C           0.1762   -0.3792    0.0000 C.ar    1  LIG1        0.1604
     10 H           1.2953   -1.6636    0.0000 H       1  LIG1        0.1668
     11 H           2.5473    0.0333    0.0000 H       1  LIG1        0.0807
     12 H           1.3011    1.7484    0.0000 H       1  LIG1        0.0639
     13 H          -0.5382    1.9598    0.0000 H       1  LIG1        0.0640
     14 H          -2.2066    0.9966    0.0000 H       1  LIG1        0.0848
@<TRIPOS>BOND
     1     1     2   ar
     2     2     3   ar
     3     3     4   ar
     4     4     5   ar
     5     5     6   ar
     6     6     7   ar
     7     7     8   ar
     8     8     9   ar
     9     1     9   ar
    10     4     9   ar
    11     1    10    1
    12     2    11    1
    13     3    12    1
    14     5    13    1
    15     6    14    1
