@<TRIPOS>MOLECULE
O=c1ccnc2ocnn12
 13 14 0 0 0
SMALL
GASTEIGER
Energy = 0

@<TRIPOS>ATOM
      1 O           0.5239   -1.4692    0.0000 O.2     1  LIG1       -0.2657
      2 C           0.5239   -0.6442    0.0000 C.ar    1  LIG1        0.2771
      3 C           1.2383   -0.2317    0.0000 C.ar    1  LIG1        0.0231
      4 C           1.2383    0.5933    0.0000 C.ar    1  LIG1        0.0381
      5 N           0.5239    1.0058    0.0000 N.ar    1  LIG1       -0.2027
      6 C          -0.1906    0.5933    0.0000 C.ar    1  LIG1        0.3286
      7 O          -0.9752    0.8483    0.0000 O.2     1  LIG1       -0.4101
      8 C          -1.4601    0.1808    0.0000 C.ar    1  LIG1        0.2047
      9 N          -0.9752   -0.4866    0.0000 N.ar    1  LIG1       -0.1293
     10 N          -0.1906   -0.2317    0.0000 N.ar    1  LIG1       -0.1430
     11 H           2.1922   -0.7824    0.0000 H       1  LIG1        0.0687
     12 H           2.1922    1.1440    0.0000 H       1  LIG1        0.0833
     13 H          -2.5616    0.1808    0.0000 H       1  LIG1        0.1272
@<TRIPOS>BOND
     1     1     2    2
     2     2     3   ar
     3     3     4   ar
     4     4     5   ar
     5     5     6   ar
     6     6     7   ar
     7     7     8   ar
     8     8     9   ar
     9     9    10   ar
    10     2    10   ar
    11     6    10   ar
    12     3    11    1
    13     4    12    1
    14     8    13    1
