@<TRIPOS>MOLECULE
Cn1cnc2nnccc12
 16 17 0 0 0
SMALL
GASTEIGER
Energy = 0

@<TRIPOS>ATOM
      1 C           1.0868   -1.3352    0.0000 C.3     1  LIG1        0.0133
      2 N           0.8319   -0.5506    0.0000 N.ar    1  LIG1       -0.3318
      3 C           1.3168    0.1169    0.0000 C.ar    1  LIG1        0.0986
      4 N           0.8319    0.7843    0.0000 N.ar    1  LIG1       -0.2149
      5 C           0.0472    0.5294    0.0000 C.ar    1  LIG1        0.1997
      6 N          -0.6672    0.9419    0.0000 N.ar    1  LIG1       -0.1276
      7 N          -1.3817    0.5294    0.0000 N.ar    1  LIG1       -0.1555
      8 C          -1.3817   -0.2956    0.0000 C.ar    1  LIG1        0.0521
      9 C          -0.6672   -0.7081    0.0000 C.ar    1  LIG1       -0.0146
     10 C           0.0472   -0.2956    0.0000 C.ar    1  LIG1        0.0907
     11 H           2.2264   -1.3651    0.0000 H       1  LIG1        0.0456
     12 H           0.6776   -1.8831   -0.9121 H       1  LIG1        0.0456
     13 H           0.6983   -1.8554    0.9370 H       1  LIG1        0.0456
     14 H           2.4183    0.1169    0.0000 H       1  LIG1        0.1029
     15 H          -2.3356   -0.8464    0.0000 H       1  LIG1        0.0849
     16 H          -0.6672   -1.8096    0.0000 H       1  LIG1        0.0655
@<TRIPOS>BOND
     1     1     2    1
     2     2     3   ar
     3     3     4   ar
     4     4     5   ar
     5     5     6   ar
     6     6     7   ar
     7     7     8   ar
     8     8     9   ar
     9     9    10   ar
    10     2    10   ar
    11     5    10   ar
    12     1    11    1
    13     1    12    1
    14     1    13    1
    15     3    14    1
    16     8    15    1
    17     9    16    1
