@<TRIPOS>MOLECULE
Cn1cnn2cncc12
 15 16 0 0 0
SMALL
GASTEIGER
Energy = 0

@<TRIPOS>ATOM
      1 C           0.9268   -1.3089    0.0000 C.3     1  LIG1        0.0147
      2 N           0.6719   -0.5243    0.0000 N.ar    1  LIG1       -0.3172
      3 C           1.1568    0.1431    0.0000 C.ar    1  LIG1        0.1183
      4 N           0.6719    0.8106    0.0000 N.ar    1  LIG1       -0.1540
      5 N          -0.1127    0.5556    0.0000 N.ar    1  LIG1       -0.2025
      6 C          -0.8973    0.8106    0.0000 C.ar    1  LIG1        0.1198
      7 N          -1.3823    0.1431    0.0000 N.ar    1  LIG1       -0.2400
      8 C          -0.8973   -0.5243    0.0000 C.ar    1  LIG1        0.0718
      9 C          -0.1127   -0.2694    0.0000 C.ar    1  LIG1        0.1558
     10 H           2.0664   -1.3388    0.0000 H       1  LIG1        0.0457
     11 H           0.5176   -1.8568   -0.9121 H       1  LIG1        0.0457
     12 H           0.5383   -1.8291    0.9370 H       1  LIG1        0.0457
     13 H           2.2583    0.1431    0.0000 H       1  LIG1        0.1047
     14 H          -1.2376    1.8582    0.0000 H       1  LIG1        0.1048
     15 H          -1.2376   -1.5719    0.0000 H       1  LIG1        0.0867
@<TRIPOS>BOND
     1     1     2    1
     2     2     3   ar
     3     3     4   ar
     4     4     5   ar
     5     5     6   ar
     6     6     7   ar
     7     7     8   ar
     8     8     9   ar
     9     2     9   ar
    10     5     9   ar
    11     1    10    1
    12     1    11    1
    13     1    12    1
    14     3    13    1
    15     6    14    1
    16     8    15    1
