@<TRIPOS>MOLECULE
Cn1ccc(=O)c2cccn12
 19 20 0 0 0
SMALL
GASTEIGER
Energy = 0

@<TRIPOS>ATOM
      1 C           0.4373   -1.6793    0.0000 C.3     1  LIG1        0.0287
      2 N           0.4373   -0.8543    0.0000 N.ar    1  LIG1       -0.2899
      3 C           1.1518   -0.4418    0.0000 C.ar    1  LIG1        0.0259
      4 C           1.1518    0.3832    0.0000 C.ar    1  LIG1        0.0049
      5 C           0.4373    0.7957    0.0000 C.ar    1  LIG1        0.2055
      6 O           0.4373    1.6207    0.0000 O.2     1  LIG1       -0.2856
      7 C          -0.2772    0.3832    0.0000 C.ar    1  LIG1        0.1100
      8 C          -1.0618    0.6381    0.0000 C.ar    1  LIG1       -0.0311
      9 C          -1.5467   -0.0293    0.0000 C.ar    1  LIG1       -0.0415
     10 C          -1.0618   -0.6968    0.0000 C.ar    1  LIG1        0.0280
     11 N          -0.2772   -0.4418    0.0000 N.ar    1  LIG1       -0.2566
     12 H           1.5119   -2.0598    0.0000 H       1  LIG1        0.0472
     13 H          -0.1212   -2.0740   -0.9121 H       1  LIG1        0.0472
     14 H          -0.0929   -2.0540    0.9370 H       1  LIG1        0.0472
     15 H           2.1057   -0.9926    0.0000 H       1  LIG1        0.0826
     16 H           2.1057    0.9340    0.0000 H       1  LIG1        0.0671
     17 H          -1.4022    1.6857    0.0000 H       1  LIG1        0.0640
     18 H          -2.6482   -0.0293    0.0000 H       1  LIG1        0.0633
     19 H          -1.4022   -1.7444    0.0000 H       1  LIG1        0.0829
@<TRIPOS>BOND
     1     1     2    1
     2     2     3   ar
     3     3     4   ar
     4     4     5   ar
     5     5     6    2
     6     5     7   ar
     7     7     8   ar
     8     8     9   ar
     9     9    10   ar
    10    10    11   ar
    11     2    11   ar
    12     7    11   ar
    13     1    12    1
    14     1    13    1
    15     1    14    1
    16     3    15    1
    17     4    16    1
    18     8    17    1
    19     9    18    1
    20    10    19    1
