@<TRIPOS>MOLECULE
Cn1cnc2scnc2c1=O
 16 17 0 0 0
SMALL
GASTEIGER
Energy = 0

@<TRIPOS>ATOM
      1 C          -1.8872   -0.6805    0.0000 C.3     1  LIG1        0.0161
      2 N          -1.1727   -0.2680    0.0000 N.ar    1  LIG1       -0.3006
      3 C          -1.1727    0.5570    0.0000 C.ar    1  LIG1        0.0997
      4 N          -0.4583    0.9695    0.0000 N.ar    1  LIG1       -0.2282
      5 C           0.2562    0.5570    0.0000 C.ar    1  LIG1        0.1347
      6 C           0.2562   -0.2680    0.0000 C.ar    1  LIG1        0.1608
      7 N           1.0408   -0.5229    0.0000 N.ar    1  LIG1       -0.2404
      8 C           1.5257    0.1445    0.0000 C.ar    1  LIG1        0.0676
      9 S           1.0408    0.8119    0.0000 S.2     1  LIG1       -0.0556
     10 C          -0.4583   -0.6805    0.0000 C.ar    1  LIG1        0.2803
     11 O          -0.4583   -1.5055    0.0000 O.2     1  LIG1       -0.2653
     12 H          -2.7540    0.0599    0.0000 H       1  LIG1        0.0457
     13 H          -1.9498   -1.3615    0.9121 H       1  LIG1        0.0457
     14 H          -1.9466   -1.3271   -0.9370 H       1  LIG1        0.0457
     15 H          -2.1266    1.1077    0.0000 H       1  LIG1        0.1030
     16 H           2.6272    0.1445    0.0000 H       1  LIG1        0.0908
@<TRIPOS>BOND
     1     1     2    1
     2     2     3   ar
     3     3     4   ar
     4     4     5   ar
     5     5     6   ar
     6     6     7   ar
     7     7     8   ar
     8     8     9   ar
     9     5     9   ar
    10     6    10   ar
    11     2    10   ar
    12    10    11    2
    13     1    12    1
    14     1    13    1
    15     1    14    1
    16     3    15    1
    17     8    16    1
