@<TRIPOS>MOLECULE
Cn1nnc2ccccc2c1=O
 19 20 0 0 0
SMALL
GASTEIGER
Energy = 0

@<TRIPOS>ATOM
      1 C           1.8559   -0.6001    0.0000 C.3     1  LIG1        0.0356
      2 N           1.1414   -0.1876    0.0000 N.ar    1  LIG1       -0.2135
      3 N           1.1414    0.6374    0.0000 N.ar    1  LIG1       -0.0624
      4 N           0.4270    1.0499    0.0000 N.ar    1  LIG1       -0.1308
      5 C          -0.2875    0.6374    0.0000 C.ar    1  LIG1        0.1001
      6 C          -1.0020    1.0499    0.0000 C.ar    1  LIG1       -0.0337
      7 C          -1.7164    0.6374    0.0000 C.ar    1  LIG1       -0.0597
      8 C          -1.7164   -0.1876    0.0000 C.ar    1  LIG1       -0.0609
      9 C          -1.0020   -0.6001    0.0000 C.ar    1  LIG1       -0.0473
     10 C          -0.2875   -0.1876    0.0000 C.ar    1  LIG1        0.0680
     11 C           0.4270   -0.6001    0.0000 C.ar    1  LIG1        0.2775
     12 O           0.4270   -1.4251    0.0000 O.2     1  LIG1       -0.2655
     13 H           2.7227    0.1403    0.0000 H       1  LIG1        0.0474
     14 H           1.9185   -1.2811   -0.9121 H       1  LIG1        0.0474
     15 H           1.9153   -1.2467    0.9370 H       1  LIG1        0.0474
     16 H          -1.0020    2.1514    0.0000 H       1  LIG1        0.0639
     17 H          -2.6703    1.1881    0.0000 H       1  LIG1        0.0618
     18 H          -2.6703   -0.7383    0.0000 H       1  LIG1        0.0618
     19 H          -1.0020   -1.7016    0.0000 H       1  LIG1        0.0626
@<TRIPOS>BOND
     1     1     2    1
     2     2     3   ar
     3     3     4   ar
     4     4     5   ar
     5     5     6   ar
     6     6     7   ar
     7     7     8   ar
     8     8     9   ar
     9     9    10   ar
    10     5    10   ar
    11    10    11   ar
    12     2    11   ar
    13    11    12    2
    14     1    13    1
    15     1    14    1
    16     1    15    1
    17     6    16    1
    18     7    17    1
    19     8    18    1
    20     9    19    1
