@<TRIPOS>MOLECULE
Cn1c(=O)ccc2cccn12
 19 20 0 0 0
SMALL
GASTEIGER
Energy = 0

@<TRIPOS>ATOM
      1 C           0.2741    1.3967    0.0000 C.3     1  LIG1        0.0324
      2 N           0.2741    0.5717    0.0000 N.ar    1  LIG1       -0.2485
      3 N          -0.4404    0.1592    0.0000 N.ar    1  LIG1       -0.2573
      4 C          -1.2250    0.4141    0.0000 C.ar    1  LIG1        0.0280
      5 C          -1.7099   -0.2533    0.0000 C.ar    1  LIG1       -0.0416
      6 C          -1.2250   -0.9207    0.0000 C.ar    1  LIG1       -0.0349
      7 C          -0.4404   -0.6658    0.0000 C.ar    1  LIG1        0.0638
      8 C           0.2741   -1.0783    0.0000 C.ar    1  LIG1       -0.0312
      9 C           0.9886   -0.6658    0.0000 C.ar    1  LIG1        0.0063
     10 C           0.9886    0.1592    0.0000 C.ar    1  LIG1        0.2658
     11 O           1.7031    0.5717    0.0000 O.2     1  LIG1       -0.2663
     12 H          -0.8005    1.7772    0.0000 H       1  LIG1        0.0473
     13 H           0.8326    1.7914   -0.9121 H       1  LIG1        0.0473
     14 H           0.8043    1.7714    0.9370 H       1  LIG1        0.0473
     15 H          -1.5654    1.4617    0.0000 H       1  LIG1        0.0829
     16 H          -2.8114   -0.2533    0.0000 H       1  LIG1        0.0633
     17 H          -1.5654   -1.9683    0.0000 H       1  LIG1        0.0639
     18 H           0.2741   -2.1798    0.0000 H       1  LIG1        0.0640
     19 H           1.9425   -1.2166    0.0000 H       1  LIG1        0.0673
@<TRIPOS>BOND
     1     1     2    1
     2     2     3   ar
     3     3     4   ar
     4     4     5   ar
     5     5     6   ar
     6     6     7   ar
     7     3     7   ar
     8     7     8   ar
     9     8     9   ar
    10     9    10   ar
    11     2    10   ar
    12    10    11    2
    13     1    12    1
    14     1    13    1
    15     1    14    1
    16     4    15    1
    17     5    16    1
    18     6    17    1
    19     8    18    1
    20     9    19    1
