@<TRIPOS>MOLECULE
Cn1ccc(=O)n2cnnc12
 17 18 0 0 0
SMALL
GASTEIGER
Energy = 0

@<TRIPOS>ATOM
      1 C           0.4734   -1.6807    0.0000 C.3     1  LIG1        0.0146
      2 N           0.4734   -0.8557    0.0000 N.ar    1  LIG1       -0.3194
      3 C           1.1879   -0.4432    0.0000 C.ar    1  LIG1        0.0127
      4 C           1.1879    0.3818    0.0000 C.ar    1  LIG1        0.0196
      5 C           0.4734    0.7943    0.0000 C.ar    1  LIG1        0.2605
      6 O           0.4734    1.6193    0.0000 O.2     1  LIG1       -0.2672
      7 N          -0.2410    0.3818    0.0000 N.ar    1  LIG1       -0.2337
      8 C          -1.0257    0.6367    0.0000 C.ar    1  LIG1        0.1283
      9 N          -1.5106   -0.0307    0.0000 N.ar    1  LIG1       -0.1356
     10 N          -1.0257   -0.6982    0.0000 N.ar    1  LIG1       -0.1104
     11 C          -0.2410   -0.4432    0.0000 C.ar    1  LIG1        0.2386
     12 H           1.5480   -2.0612    0.0000 H       1  LIG1        0.0457
     13 H          -0.0851   -2.0754   -0.9121 H       1  LIG1        0.0457
     14 H          -0.0568   -2.0554    0.9370 H       1  LIG1        0.0457
     15 H           2.1418   -0.9940    0.0000 H       1  LIG1        0.0811
     16 H           2.1418    0.9326    0.0000 H       1  LIG1        0.0686
     17 H          -1.3661    1.6843    0.0000 H       1  LIG1        0.1053
@<TRIPOS>BOND
     1     1     2    1
     2     2     3   ar
     3     3     4   ar
     4     4     5   ar
     5     5     6    2
     6     5     7   ar
     7     7     8   ar
     8     8     9   ar
     9     9    10   ar
    10    10    11   ar
    11     2    11   ar
    12     7    11   ar
    13     1    12    1
    14     1    13    1
    15     1    14    1
    16     3    15    1
    17     4    16    1
    18     8    17    1
