@<TRIPOS>MOLECULE
c1cc2ccnnn2c1
 14 15 0 0 0
SMALL
GASTEIGER
Energy = 0

@<TRIPOS>ATOM
      1 C           1.4595   -0.0289    0.0000 C.ar    1  LIG1       -0.0415
      2 C           0.9746    0.6386    0.0000 C.ar    1  LIG1        0.0314
      3 N           0.1899    0.3836    0.0000 N.ar    1  LIG1       -0.2216
      4 N          -0.5245    0.7961    0.0000 N.ar    1  LIG1       -0.0609
      5 N          -1.2390    0.3836    0.0000 N.ar    1  LIG1       -0.1391
      6 C          -1.2390   -0.4414    0.0000 C.ar    1  LIG1        0.0536
      7 C          -0.5245   -0.8539    0.0000 C.ar    1  LIG1       -0.0163
      8 C           0.1899   -0.4414    0.0000 C.ar    1  LIG1        0.0685
      9 C           0.9746   -0.6963    0.0000 C.ar    1  LIG1       -0.0347
     10 H           2.5610   -0.0289    0.0000 H       1  LIG1        0.0633
     11 H           1.3150    1.6862    0.0000 H       1  LIG1        0.0831
     12 H          -2.1929   -0.9922    0.0000 H       1  LIG1        0.0849
     13 H          -0.5245   -1.9554    0.0000 H       1  LIG1        0.0654
     14 H           1.3150   -1.7439    0.0000 H       1  LIG1        0.0639
@<TRIPOS>BOND
     1     1     2   ar
     2     2     3   ar
     3     3     4   ar
     4     4     5   ar
     5     5     6   ar
     6     6     7   ar
     7     7     8   ar
     8     3     8   ar
     9     8     9   ar
    10     1     9   ar
    11     1    10    1
    12     2    11    1
    13     6    12    1
    14     7    13    1
    15     9    14    1
