@<TRIPOS>MOLECULE
O=c1nc[nH]c2nccn12
 14 15 0 0 0
SMALL
GASTEIGER
Energy = 0

@<TRIPOS>ATOM
      1 O           0.4757   -1.4602    0.0000 O.2     1  LIG1       -0.2440
      2 C           0.4757   -0.6352    0.0000 C.ar    1  LIG1        0.3565
      3 N           1.1902   -0.2227    0.0000 N.ar    1  LIG1       -0.1831
      4 C           1.1902    0.6023    0.0000 C.ar    1  LIG1        0.1013
      5 N           0.4757    1.0148    0.0000 N.ar    1  LIG1       -0.3159
      6 C          -0.2388    0.6023    0.0000 C.ar    1  LIG1        0.2175
      7 N          -1.0234    0.8572    0.0000 N.ar    1  LIG1       -0.2202
      8 C          -1.5083    0.1898    0.0000 C.ar    1  LIG1        0.0480
      9 C          -1.0234   -0.4777    0.0000 C.ar    1  LIG1        0.0356
     10 N          -0.2388   -0.2227    0.0000 N.ar    1  LIG1       -0.2360
     11 H           2.1441    1.1531    0.0000 H       1  LIG1        0.1029
     12 H           0.4757    2.0973    0.0000 H       1  LIG1        0.1696
     13 H          -2.6098    0.1898    0.0000 H       1  LIG1        0.0846
     14 H          -1.3638   -1.5253    0.0000 H       1  LIG1        0.0831
@<TRIPOS>BOND
     1     1     2    2
     2     2     3   ar
     3     3     4   ar
     4     4     5   ar
     5     5     6   ar
     6     6     7   ar
     7     7     8   ar
     8     8     9   ar
     9     9    10   ar
    10     2    10   ar
    11     6    10   ar
    12     4    11    1
    13     5    12    1
    14     8    13    1
    15     9    14    1
