@<TRIPOS>MOLECULE
O=c1[nH][nH]c2ccccc12
 16 17 0 0 0
SMALL
GASTEIGER
Energy = 0

@<TRIPOS>ATOM
      1 O           1.0135   -1.2811    0.0000 O.2     1  LIG1       -0.2658
      2 C           0.7585   -0.4965    0.0000 C.ar    1  LIG1        0.2722
      3 N           1.2435    0.1710    0.0000 N.ar    1  LIG1       -0.2652
      4 N           0.7585    0.8384    0.0000 N.ar    1  LIG1       -0.2966
      5 C          -0.0261    0.5835    0.0000 C.ar    1  LIG1        0.0675
      6 C          -0.7406    0.9960    0.0000 C.ar    1  LIG1       -0.0362
      7 C          -1.4550    0.5835    0.0000 C.ar    1  LIG1       -0.0597
      8 C          -1.4550   -0.2415    0.0000 C.ar    1  LIG1       -0.0609
      9 C          -0.7406   -0.6540    0.0000 C.ar    1  LIG1       -0.0473
     10 C          -0.0261   -0.2415    0.0000 C.ar    1  LIG1        0.0652
     11 H           2.3260    0.1710    0.0000 H       1  LIG1        0.1899
     12 H           1.0930    1.8679    0.0000 H       1  LIG1        0.1868
     13 H          -0.7406    2.0975    0.0000 H       1  LIG1        0.0639
     14 H          -2.4089    1.1342    0.0000 H       1  LIG1        0.0618
     15 H          -2.4089   -0.7922    0.0000 H       1  LIG1        0.0618
     16 H          -0.7406   -1.7555    0.0000 H       1  LIG1        0.0626
@<TRIPOS>BOND
     1     1     2    2
     2     2     3   ar
     3     3     4   ar
     4     4     5   ar
     5     5     6   ar
     6     6     7   ar
     7     7     8   ar
     8     8     9   ar
     9     9    10   ar
    10     2    10   ar
    11     5    10   ar
    12     3    11    1
    13     4    12    1
    14     6    13    1
    15     7    14    1
    16     8    15    1
    17     9    16    1
