@<TRIPOS>MOLECULE
c1nn2cnnc2s1
 10 11 0 0 0
SMALL
GASTEIGER
Energy = 0

@<TRIPOS>ATOM
      1 S           0.6783   -0.5662    0.0000 S.2     1  LIG1       -0.0346
      2 C           1.1632    0.1012    0.0000 C.ar    1  LIG1        0.0889
      3 N           0.6783    0.7686    0.0000 N.ar    1  LIG1       -0.1643
      4 N          -0.1064    0.5137    0.0000 N.ar    1  LIG1       -0.1937
      5 C          -0.8910    0.7686    0.0000 C.ar    1  LIG1        0.1426
      6 N          -1.3759    0.1012    0.0000 N.ar    1  LIG1       -0.1351
      7 N          -0.8910   -0.5662    0.0000 N.ar    1  LIG1       -0.1206
      8 C          -0.1064   -0.3113    0.0000 C.ar    1  LIG1        0.2174
      9 H           2.2647    0.1012    0.0000 H       1  LIG1        0.0926
     10 H          -1.2314    1.8162    0.0000 H       1  LIG1        0.1067
@<TRIPOS>BOND
     1     1     2   ar
     2     2     3   ar
     3     3     4   ar
     4     4     5   ar
     5     5     6   ar
     6     6     7   ar
     7     7     8   ar
     8     1     8   ar
     9     4     8   ar
    10     2     9    1
    11     5    10    1
