@<TRIPOS>MOLECULE
c1cc2ccnnc2cn1
 15 16 0 0 0
SMALL
GASTEIGER
Energy = 0

@<TRIPOS>ATOM
      1 C           1.4403    0.4386    0.0000 C.ar    1  LIG1        0.0283
      2 C           0.7258    0.8511    0.0000 C.ar    1  LIG1       -0.0343
      3 C           0.0113    0.4386    0.0000 C.ar    1  LIG1        0.0065
      4 C          -0.7032    0.8511    0.0000 C.ar    1  LIG1       -0.0325
      5 C          -1.4176    0.4386    0.0000 C.ar    1  LIG1        0.0506
      6 N          -1.4176   -0.3864    0.0000 N.ar    1  LIG1       -0.1571
      7 N          -0.7032   -0.7989    0.0000 N.ar    1  LIG1       -0.1477
      8 C           0.0113   -0.3864    0.0000 C.ar    1  LIG1        0.1113
      9 C           0.7258   -0.7989    0.0000 C.ar    1  LIG1        0.0552
     10 N           1.4403   -0.3864    0.0000 N.ar    1  LIG1       -0.2611
     11 H           2.3942    0.9894    0.0000 H       1  LIG1        0.0830
     12 H           0.7258    1.9526    0.0000 H       1  LIG1        0.0639
     13 H          -0.7032    1.9526    0.0000 H       1  LIG1        0.0640
     14 H          -2.3715    0.9893    0.0000 H       1  LIG1        0.0848
     15 H           0.7258   -1.9004    0.0000 H       1  LIG1        0.0852
@<TRIPOS>BOND
     1     1     2   ar
     2     2     3   ar
     3     3     4   ar
     4     4     5   ar
     5     5     6   ar
     6     6     7   ar
     7     7     8   ar
     8     3     8   ar
     9     8     9   ar
    10     9    10   ar
    11     1    10   ar
    12     1    11    1
    13     2    12    1
    14     4    13    1
    15     5    14    1
    16     9    15    1
