@<TRIPOS>MOLECULE
O=c1ncnn[nH]1
 9 9 0 0 0
SMALL
GASTEIGER
Energy = 0

@<TRIPOS>ATOM
      1 O          -0.0148   -1.3837    0.0000 O.2     1  LIG1       -0.2431
      2 C          -0.0148   -0.5587    0.0000 C.ar    1  LIG1        0.3647
      3 N           0.6996   -0.1462    0.0000 N.ar    1  LIG1       -0.2082
      4 N           0.6996    0.6788    0.0000 N.ar    1  LIG1       -0.0628
      5 N          -0.0148    1.0913    0.0000 N.ar    1  LIG1       -0.1195
      6 C          -0.7293    0.6788    0.0000 C.ar    1  LIG1        0.1453
      7 N          -0.7293   -0.1462    0.0000 N.ar    1  LIG1       -0.1786
      8 H           1.6371   -0.6874    0.0000 H       1  LIG1        0.1954
      9 H          -1.6832    1.2296    0.0000 H       1  LIG1        0.1068
@<TRIPOS>BOND
     1     1     2    2
     2     2     3   ar
     3     3     4   ar
     4     4     5   ar
     5     5     6   ar
     6     6     7   ar
     7     2     7   ar
     8     3     8    1
     9     6     9    1
