@<TRIPOS>MOLECULE
Cn1ncc2cnoc12
 14 15 0 0 0
SMALL
GASTEIGER
Energy = 0

@<TRIPOS>ATOM
      1 C           0.9471   -1.2705    0.0000 C.3     1  LIG1        0.0339
      2 N           0.6921   -0.4859    0.0000 N.ar    1  LIG1       -0.2335
      3 N           1.1770    0.1815    0.0000 N.ar    1  LIG1       -0.1761
      4 C           0.6921    0.8490    0.0000 C.ar    1  LIG1        0.0619
      5 C          -0.0925    0.5940    0.0000 C.ar    1  LIG1        0.0799
      6 C          -0.0925   -0.2310    0.0000 C.ar    1  LIG1        0.2565
      7 O          -0.8771   -0.4859    0.0000 O.2     1  LIG1       -0.3348
      8 N          -1.3620    0.1815    0.0000 N.ar    1  LIG1       -0.0835
      9 C          -0.8771    0.8490    0.0000 C.ar    1  LIG1        0.0809
     10 H           2.0867   -1.3003    0.0000 H       1  LIG1        0.0474
     11 H           0.5380   -1.8185   -0.9121 H       1  LIG1        0.0474
     12 H           0.5586   -1.7908    0.9370 H       1  LIG1        0.0474
     13 H           1.0325    1.8966    0.0000 H       1  LIG1        0.0855
     14 H          -1.2175    1.8966    0.0000 H       1  LIG1        0.0871
@<TRIPOS>BOND
     1     1     2    1
     2     2     3   ar
     3     3     4   ar
     4     4     5   ar
     5     5     6   ar
     6     2     6   ar
     7     6     7   ar
     8     7     8   ar
     9     8     9   ar
    10     5     9   ar
    11     1    10    1
    12     1    11    1
    13     1    12    1
    14     4    13    1
    15     9    14    1
