@<TRIPOS>MOLECULE
O=c1[nH]cnc2nnccc12
 15 16 0 0 0
SMALL
GASTEIGER
Energy = 0

@<TRIPOS>ATOM
      1 O           0.6351   -1.4896    0.0000 O.2     1  LIG1       -0.2671
      2 C           0.6351   -0.6646    0.0000 C.ar    1  LIG1        0.2607
      3 N           1.3496   -0.2521    0.0000 N.ar    1  LIG1       -0.3128
      4 C           1.3496    0.5729    0.0000 C.ar    1  LIG1        0.0984
      5 N           0.6351    0.9854    0.0000 N.ar    1  LIG1       -0.2161
      6 C          -0.0793    0.5729    0.0000 C.ar    1  LIG1        0.1884
      7 N          -0.7938    0.9854    0.0000 N.ar    1  LIG1       -0.1289
      8 N          -1.5083    0.5729    0.0000 N.ar    1  LIG1       -0.1556
      9 C          -1.5083   -0.2521    0.0000 C.ar    1  LIG1        0.0508
     10 C          -0.7938   -0.6646    0.0000 C.ar    1  LIG1       -0.0259
     11 C          -0.0793   -0.2521    0.0000 C.ar    1  LIG1        0.0866
     12 H           2.2871   -0.7934    0.0000 H       1  LIG1        0.1698
     13 H           2.3035    1.1237    0.0000 H       1  LIG1        0.1028
     14 H          -2.4622   -0.8029    0.0000 H       1  LIG1        0.0848
     15 H          -0.7938   -1.7661    0.0000 H       1  LIG1        0.0642
@<TRIPOS>BOND
     1     1     2    2
     2     2     3   ar
     3     3     4   ar
     4     4     5   ar
     5     5     6   ar
     6     6     7   ar
     7     7     8   ar
     8     8     9   ar
     9     9    10   ar
    10    10    11   ar
    11     2    11   ar
    12     6    11   ar
    13     3    12    1
    14     4    13    1
    15     9    14    1
    16    10    15    1
