@<TRIPOS>MOLECULE
O=c1ccn2cccnc2c1
 17 18 0 0 0
SMALL
GASTEIGER
Energy = 0

@<TRIPOS>ATOM
      1 O           1.9088   -0.7249    0.0000 O.2     1  LIG1       -0.2877
      2 C           1.1943   -0.3124    0.0000 C.ar    1  LIG1        0.1838
      3 C           1.1943    0.5126    0.0000 C.ar    1  LIG1        0.0017
      4 C           0.4799    0.9251    0.0000 C.ar    1  LIG1        0.0147
      5 N          -0.2346    0.5126    0.0000 N.ar    1  LIG1       -0.3078
      6 C          -0.9491    0.9251    0.0000 C.ar    1  LIG1        0.0126
      7 C          -1.6635    0.5126    0.0000 C.ar    1  LIG1       -0.0270
      8 C          -1.6635   -0.3124    0.0000 C.ar    1  LIG1        0.0313
      9 N          -0.9491   -0.7249    0.0000 N.ar    1  LIG1       -0.2374
     10 C          -0.2346   -0.3124    0.0000 C.ar    1  LIG1        0.1410
     11 C           0.4799   -0.7249    0.0000 C.ar    1  LIG1        0.0279
     12 H           2.1482    1.0633    0.0000 H       1  LIG1        0.0670
     13 H           0.4799    2.0266    0.0000 H       1  LIG1        0.0814
     14 H          -0.9491    2.0266    0.0000 H       1  LIG1        0.0814
     15 H          -2.6174    1.0633    0.0000 H       1  LIG1        0.0647
     16 H          -2.6174   -0.8631    0.0000 H       1  LIG1        0.0831
     17 H           0.4799   -1.8264    0.0000 H       1  LIG1        0.0693
@<TRIPOS>BOND
     1     1     2    2
     2     2     3   ar
     3     3     4   ar
     4     4     5   ar
     5     5     6   ar
     6     6     7   ar
     7     7     8   ar
     8     8     9   ar
     9     9    10   ar
    10     5    10   ar
    11    10    11   ar
    12     2    11   ar
    13     3    12    1
    14     4    13    1
    15     6    14    1
    16     7    15    1
    17     8    16    1
    18    11    17    1
