@<TRIPOS>MOLECULE
O=c1ccn2c(=O)ccn12
 14 15 0 0 0
SMALL
GASTEIGER
Energy = 0

@<TRIPOS>ATOM
      1 O           1.0396   -1.4521    0.0000 O.2     1  LIG1       -0.2659
      2 C           0.7846   -0.6674    0.0000 C.ar    1  LIG1        0.2716
      3 C           1.2695   -0.0000    0.0000 C.ar    1  LIG1        0.0228
      4 C           0.7846    0.6674    0.0000 C.ar    1  LIG1        0.0367
      5 N           0.0000    0.4125    0.0000 N.ar    1  LIG1       -0.2173
      6 N           0.0000   -0.4125    0.0000 N.ar    1  LIG1       -0.2173
      7 C          -0.7846   -0.6674    0.0000 C.ar    1  LIG1        0.0367
      8 C          -1.2695    0.0000    0.0000 C.ar    1  LIG1        0.0228
      9 C          -0.7846    0.6674    0.0000 C.ar    1  LIG1        0.2716
     10 O          -1.0396    1.4521    0.0000 O.2     1  LIG1       -0.2659
     11 H           2.3710    0.0000    0.0000 H       1  LIG1        0.0687
     12 H           1.1250    1.7150    0.0000 H       1  LIG1        0.0832
     13 H          -1.1250   -1.7150    0.0000 H       1  LIG1        0.0832
     14 H          -2.3710    0.0000    0.0000 H       1  LIG1        0.0687
@<TRIPOS>BOND
     1     1     2    2
     2     2     3   ar
     3     3     4   ar
     4     4     5   ar
     5     5     6   ar
     6     2     6   ar
     7     6     7   ar
     8     7     8   ar
     9     8     9   ar
    10     5     9   ar
    11     9    10    2
    12     3    11    1
    13     4    12    1
    14     7    13    1
    15     8    14    1
