@<TRIPOS>MOLECULE
Cn1[nH]c2[nH]c(=O)ccc2c1=O
 19 20 0 0 0
SMALL
GASTEIGER
Energy = 0

@<TRIPOS>ATOM
      1 C           2.1402    0.0446    0.0000 C.3     1  LIG1        0.0319
      2 N           1.3152    0.0446    0.0000 N.ar    1  LIG1       -0.2533
      3 N           0.8303    0.7121    0.0000 N.ar    1  LIG1       -0.2793
      4 C           0.0457    0.4571    0.0000 C.ar    1  LIG1        0.1387
      5 C           0.0457   -0.3679    0.0000 C.ar    1  LIG1        0.0826
      6 C          -0.6688   -0.7804    0.0000 C.ar    1  LIG1       -0.0407
      7 C          -1.3833   -0.3679    0.0000 C.ar    1  LIG1        0.0036
      8 C          -1.3833    0.4571    0.0000 C.ar    1  LIG1        0.2502
      9 O          -2.0977    0.8696    0.0000 O.2     1  LIG1       -0.2679
     10 N          -0.6688    0.8696    0.0000 N.ar    1  LIG1       -0.3073
     11 C           0.8303   -0.6228    0.0000 C.ar    1  LIG1        0.2760
     12 O           1.0852   -1.4074    0.0000 O.2     1  LIG1       -0.2655
     13 H           2.5207    1.1192    0.0000 H       1  LIG1        0.0473
     14 H           2.5349   -0.5139   -0.9121 H       1  LIG1        0.0473
     15 H           2.5149   -0.4856    0.9370 H       1  LIG1        0.0473
     16 H           1.1648    1.7416    0.0000 H       1  LIG1        0.1886
     17 H          -0.6688   -1.8819    0.0000 H       1  LIG1        0.0628
     18 H          -2.3372   -0.9187    0.0000 H       1  LIG1        0.0672
     19 H          -0.6688    1.9521    0.0000 H       1  LIG1        0.1703
@<TRIPOS>BOND
     1     1     2    1
     2     2     3   ar
     3     3     4   ar
     4     4     5   ar
     5     5     6   ar
     6     6     7   ar
     7     7     8   ar
     8     8     9    2
     9     8    10   ar
    10     4    10   ar
    11     5    11   ar
    12     2    11   ar
    13    11    12    2
    14     1    13    1
    15     1    14    1
    16     1    15    1
    17     3    16    1
    18     6    17    1
    19     7    18    1
    20    10    19    1
