@<TRIPOS>MOLECULE
Cn1c(=O)[nH]c2c(=O)[nH]ccc12
 19 20 0 0 0
SMALL
GASTEIGER
Energy = 0

@<TRIPOS>ATOM
      1 C           0.9292   -1.5139    0.0000 C.3     1  LIG1        0.0167
      2 N           0.6742   -0.7293    0.0000 N.ar    1  LIG1       -0.2950
      3 C           1.1591   -0.0619    0.0000 C.ar    1  LIG1        0.3275
      4 O           1.9841   -0.0619    0.0000 O.2     1  LIG1       -0.2465
      5 N           0.6742    0.6056    0.0000 N.ar    1  LIG1       -0.3017
      6 C          -0.1104    0.3506    0.0000 C.ar    1  LIG1        0.1321
      7 C          -0.1104   -0.4744    0.0000 C.ar    1  LIG1        0.0760
      8 C          -0.8249   -0.8869    0.0000 C.ar    1  LIG1       -0.0198
      9 C          -1.5393   -0.4744    0.0000 C.ar    1  LIG1        0.0070
     10 N          -1.5393    0.3506    0.0000 N.ar    1  LIG1       -0.3273
     11 C          -0.8249    0.7631    0.0000 C.ar    1  LIG1        0.2743
     12 O          -0.8249    1.5881    0.0000 O.2     1  LIG1       -0.2656
     13 H           2.0688   -1.5437    0.0000 H       1  LIG1        0.0457
     14 H           0.5201   -2.0619   -0.9121 H       1  LIG1        0.0457
     15 H           0.5407   -2.0342    0.9370 H       1  LIG1        0.0457
     16 H           1.0087    1.6351    0.0000 H       1  LIG1        0.1706
     17 H          -0.8249   -1.9884    0.0000 H       1  LIG1        0.0653
     18 H          -2.4932   -1.0251    0.0000 H       1  LIG1        0.0808
     19 H          -2.4768    0.8918    0.0000 H       1  LIG1        0.1684
@<TRIPOS>BOND
     1     1     2    1
     2     2     3   ar
     3     3     4    2
     4     3     5   ar
     5     5     6   ar
     6     6     7   ar
     7     2     7   ar
     8     7     8   ar
     9     8     9   ar
    10     9    10   ar
    11    10    11   ar
    12     6    11   ar
    13    11    12    2
    14     1    13    1
    15     1    14    1
    16     1    15    1
    17     5    16    1
    18     8    17    1
    19     9    18    1
    20    10    19    1
