@<TRIPOS>MOLECULE
Cn1ccc2c(=O)nnc2[nH]1
 17 18 0 0 0
SMALL
GASTEIGER
Energy = 0

@<TRIPOS>ATOM
      1 C          -1.9582    0.8911    0.0000 C.3     1  LIG1        0.0282
      2 N          -1.2438    0.4786    0.0000 N.ar    1  LIG1       -0.2953
      3 N          -0.5293    0.8911    0.0000 N.ar    1  LIG1       -0.2795
      4 C           0.1852    0.4786    0.0000 C.ar    1  LIG1        0.1803
      5 C           0.1852   -0.3464    0.0000 C.ar    1  LIG1        0.0893
      6 C          -0.5293   -0.7589    0.0000 C.ar    1  LIG1       -0.0280
      7 C          -1.2438   -0.3464    0.0000 C.ar    1  LIG1        0.0225
      8 C           0.9698   -0.6014    0.0000 C.ar    1  LIG1        0.2991
      9 O           1.2247   -1.3860    0.0000 O.2     1  LIG1       -0.2635
     10 N           1.4547    0.0661    0.0000 N.ar    1  LIG1       -0.1040
     11 N           0.9698    0.7335    0.0000 N.ar    1  LIG1       -0.1259
     12 H          -1.7504    2.0120    0.0000 H       1  LIG1        0.0472
     13 H          -2.5792    0.6048    0.9121 H       1  LIG1        0.0472
     14 H          -2.5479    0.6193   -0.9370 H       1  LIG1        0.0472
     15 H          -0.5293    1.9736    0.0000 H       1  LIG1        0.1886
     16 H          -0.5293   -1.8604    0.0000 H       1  LIG1        0.0641
     17 H          -2.1977   -0.8972    0.0000 H       1  LIG1        0.0825
@<TRIPOS>BOND
     1     1     2    1
     2     2     3   ar
     3     3     4   ar
     4     4     5   ar
     5     5     6   ar
     6     6     7   ar
     7     2     7   ar
     8     5     8   ar
     9     8     9    2
    10     8    10   ar
    11    10    11   ar
    12     4    11   ar
    13     1    12    1
    14     1    13    1
    15     1    14    1
    16     3    15    1
    17     6    16    1
    18     7    17    1
