@<TRIPOS>MOLECULE
c1cc2cnccc2[nH]1
 15 16 0 0 0
SMALL
GASTEIGER
Energy = 0

@<TRIPOS>ATOM
      1 N           0.9513   -0.6629    0.0000 N.ar    1  LIG1       -0.3606
      2 C           1.4362    0.0045    0.0000 C.ar    1  LIG1        0.0028
      3 C           0.9513    0.6720    0.0000 C.ar    1  LIG1       -0.0352
      4 C           0.1666    0.4170    0.0000 C.ar    1  LIG1        0.0177
      5 C          -0.5478    0.8295    0.0000 C.ar    1  LIG1        0.0367
      6 N          -1.2623    0.4170    0.0000 N.ar    1  LIG1       -0.2625
      7 C          -1.2623   -0.4080    0.0000 C.ar    1  LIG1        0.0295
      8 C          -0.5478   -0.8205    0.0000 C.ar    1  LIG1       -0.0197
      9 C           0.1666   -0.4080    0.0000 C.ar    1  LIG1        0.0494
     10 H           1.2858   -1.6924    0.0000 H       1  LIG1        0.1653
     11 H           2.5377    0.0045    0.0000 H       1  LIG1        0.0807
     12 H           1.2917    1.7196    0.0000 H       1  LIG1        0.0639
     13 H          -0.5478    1.9310    0.0000 H       1  LIG1        0.0836
     14 H          -2.2162   -0.9588    0.0000 H       1  LIG1        0.0830
     15 H          -0.5478   -1.9220    0.0000 H       1  LIG1        0.0653
@<TRIPOS>BOND
     1     1     2   ar
     2     2     3   ar
     3     3     4   ar
     4     4     5   ar
     5     5     6   ar
     6     6     7   ar
     7     7     8   ar
     8     8     9   ar
     9     1     9   ar
    10     4     9   ar
    11     1    10    1
    12     2    11    1
    13     3    12    1
    14     5    13    1
    15     7    14    1
    16     8    15    1
