@<TRIPOS>MOLECULE
O=c1[nH]c(=O)c2ccccc2[nH]1
 18 19 0 0 0
SMALL
GASTEIGER
Energy = 0

@<TRIPOS>ATOM
      1 O           1.8231   -0.9043    0.0000 O.2     1  LIG1       -0.2467
      2 C           1.1086   -0.4918    0.0000 C.ar    1  LIG1        0.3272
      3 N           1.1086    0.3332    0.0000 N.ar    1  LIG1       -0.2746
      4 C           0.3941    0.7457    0.0000 C.ar    1  LIG1        0.2617
      5 O           0.3941    1.5707    0.0000 O.2     1  LIG1       -0.2671
      6 C          -0.3203    0.3332    0.0000 C.ar    1  LIG1        0.0628
      7 C          -1.0348    0.7457    0.0000 C.ar    1  LIG1       -0.0474
      8 C          -1.7493    0.3332    0.0000 C.ar    1  LIG1       -0.0609
      9 C          -1.7493   -0.4918    0.0000 C.ar    1  LIG1       -0.0598
     10 C          -1.0348   -0.9043    0.0000 C.ar    1  LIG1       -0.0375
     11 C          -0.3203   -0.4918    0.0000 C.ar    1  LIG1        0.0556
     12 N           0.3941   -0.9043    0.0000 N.ar    1  LIG1       -0.3072
     13 H           2.0461    0.8745    0.0000 H       1  LIG1        0.1734
     14 H          -1.0348    1.8472    0.0000 H       1  LIG1        0.0626
     15 H          -2.7032    0.8840    0.0000 H       1  LIG1        0.0618
     16 H          -2.7032   -1.0426    0.0000 H       1  LIG1        0.0618
     17 H          -1.0348   -2.0058    0.0000 H       1  LIG1        0.0638
     18 H           0.3941   -1.9868    0.0000 H       1  LIG1        0.1704
@<TRIPOS>BOND
     1     1     2    2
     2     2     3   ar
     3     3     4   ar
     4     4     5    2
     5     4     6   ar
     6     6     7   ar
     7     7     8   ar
     8     8     9   ar
     9     9    10   ar
    10    10    11   ar
    11     6    11   ar
    12    11    12   ar
    13     2    12   ar
    14     3    13    1
    15     7    14    1
    16     8    15    1
    17     9    16    1
    18    10    17    1
    19    12    18    1
