@<TRIPOS>MOLECULE
O=c1[nH]ncc2scnc12
 13 14 0 0 0
SMALL
GASTEIGER
Energy = 0

@<TRIPOS>ATOM
      1 O          -0.5997   -1.5545    0.0000 O.2     1  LIG1       -0.2641
      2 C          -0.5997   -0.7295    0.0000 C.ar    1  LIG1        0.2913
      3 N          -1.3142   -0.3170    0.0000 N.ar    1  LIG1       -0.2414
      4 N          -1.3142    0.5080    0.0000 N.ar    1  LIG1       -0.1781
      5 C          -0.5997    0.9205    0.0000 C.ar    1  LIG1        0.0638
      6 C           0.1147    0.5080    0.0000 C.ar    1  LIG1        0.0640
      7 C           0.1147   -0.3170    0.0000 C.ar    1  LIG1        0.1451
      8 N           0.8994   -0.5719    0.0000 N.ar    1  LIG1       -0.2419
      9 C           1.3843    0.0955    0.0000 C.ar    1  LIG1        0.0662
     10 S           0.8994    0.7630    0.0000 S.2     1  LIG1       -0.0737
     11 H          -2.2517   -0.8583    0.0000 H       1  LIG1        0.1922
     12 H          -0.5997    2.0220    0.0000 H       1  LIG1        0.0859
     13 H           2.4858    0.0955    0.0000 H       1  LIG1        0.0908
@<TRIPOS>BOND
     1     1     2    2
     2     2     3   ar
     3     3     4   ar
     4     4     5   ar
     5     5     6   ar
     6     6     7   ar
     7     2     7   ar
     8     7     8   ar
     9     8     9   ar
    10     9    10   ar
    11     6    10   ar
    12     3    11    1
    13     5    12    1
    14     9    13    1
