@<TRIPOS>MOLECULE
c1cc[nH]c1
 10 10 0 0 0
SMALL
GASTEIGER
Energy = 0

@<TRIPOS>ATOM
      1 N          -0.2099   -0.6460    0.0000 N.ar    1  LIG1       -0.3670
      2 C           0.5747   -0.3910    0.0000 C.ar    1  LIG1        0.0016
      3 C           0.5747    0.4340    0.0000 C.ar    1  LIG1       -0.0444
      4 C          -0.2099    0.6889    0.0000 C.ar    1  LIG1       -0.0444
      5 C          -0.6948    0.0215    0.0000 C.ar    1  LIG1        0.0016
      6 H          -0.5444   -1.6755    0.0000 H       1  LIG1        0.1648
      7 H           1.4659   -1.0384    0.0000 H       1  LIG1        0.0807
      8 H           1.4658    1.0815    0.0000 H       1  LIG1        0.0632
      9 H          -0.5503    1.7365    0.0000 H       1  LIG1        0.0632
     10 H          -1.7963    0.0215    0.0000 H       1  LIG1        0.0807
@<TRIPOS>BOND
     1     1     2   ar
     2     2     3   ar
     3     3     4   ar
     4     4     5   ar
     5     1     5   ar
     6     1     6    1
     7     2     7    1
     8     3     8    1
     9     4     9    1
    10     5    10    1
