@<TRIPOS>MOLECULE
Cn1cnc2[nH]c(=O)cnc12
 17 18 0 0 0
SMALL
GASTEIGER
Energy = 0

@<TRIPOS>ATOM
      1 C           1.3097   -1.4226    0.0000 C.3     1  LIG1        0.0147
      2 N           1.0547   -0.6380    0.0000 N.ar    1  LIG1       -0.3169
      3 C           1.5396    0.0294    0.0000 C.ar    1  LIG1        0.0996
      4 N           1.0547    0.6969    0.0000 N.ar    1  LIG1       -0.2165
      5 C           0.2701    0.4419    0.0000 C.ar    1  LIG1        0.1782
      6 C           0.2701   -0.3831    0.0000 C.ar    1  LIG1        0.1776
      7 N          -0.4444   -0.7956    0.0000 N.ar    1  LIG1       -0.2291
      8 C          -1.1588   -0.3831    0.0000 C.ar    1  LIG1        0.0943
      9 C          -1.1588    0.4419    0.0000 C.ar    1  LIG1        0.2685
     10 O          -1.8733    0.8544    0.0000 O.2     1  LIG1       -0.2662
     11 N          -0.4444    0.8544    0.0000 N.ar    1  LIG1       -0.3033
     12 H           2.4493   -1.4524    0.0000 H       1  LIG1        0.0457
     13 H           0.9006   -1.9706   -0.9121 H       1  LIG1        0.0457
     14 H           0.9212   -1.9429    0.9370 H       1  LIG1        0.0457
     15 H           2.6411    0.0294    0.0000 H       1  LIG1        0.1030
     16 H          -2.1127   -0.9338    0.0000 H       1  LIG1        0.0886
     17 H          -0.4444    1.9369    0.0000 H       1  LIG1        0.1705
@<TRIPOS>BOND
     1     1     2    1
     2     2     3   ar
     3     3     4   ar
     4     4     5   ar
     5     5     6   ar
     6     2     6   ar
     7     6     7   ar
     8     7     8   ar
     9     8     9   ar
    10     9    10    2
    11     9    11   ar
    12     5    11   ar
    13     1    12    1
    14     1    13    1
    15     1    14    1
    16     3    15    1
    17     8    16    1
    18    11    17    1
