@<TRIPOS>MOLECULE
Cn1nnc2c(=O)[nH]ccc12
 17 18 0 0 0
SMALL
GASTEIGER
Energy = 0

@<TRIPOS>ATOM
      1 C           1.1334   -1.5199    0.0000 C.3     1  LIG1        0.0325
      2 N           0.8785   -0.7353    0.0000 N.ar    1  LIG1       -0.2468
      3 N           1.3634   -0.0679    0.0000 N.ar    1  LIG1       -0.0647
      4 N           0.8785    0.5996    0.0000 N.ar    1  LIG1       -0.1240
      5 C           0.0939    0.3446    0.0000 C.ar    1  LIG1        0.1766
      6 C           0.0939   -0.4804    0.0000 C.ar    1  LIG1        0.0954
      7 C          -0.6206   -0.8929    0.0000 C.ar    1  LIG1       -0.0183
      8 C          -1.3351   -0.4804    0.0000 C.ar    1  LIG1        0.0071
      9 N          -1.3351    0.3446    0.0000 N.ar    1  LIG1       -0.3272
     10 C          -0.6206    0.7571    0.0000 C.ar    1  LIG1        0.2782
     11 O          -0.6206    1.5821    0.0000 O.2     1  LIG1       -0.2655
     12 H           2.2730   -1.5498    0.0000 H       1  LIG1        0.0473
     13 H           0.7242   -2.0678   -0.9121 H       1  LIG1        0.0473
     14 H           0.7449   -2.0401    0.9370 H       1  LIG1        0.0473
     15 H          -0.6206   -1.9944    0.0000 H       1  LIG1        0.0654
     16 H          -2.2890   -1.0312    0.0000 H       1  LIG1        0.0808
     17 H          -2.2726    0.8859    0.0000 H       1  LIG1        0.1684
@<TRIPOS>BOND
     1     1     2    1
     2     2     3   ar
     3     3     4   ar
     4     4     5   ar
     5     5     6   ar
     6     2     6   ar
     7     6     7   ar
     8     7     8   ar
     9     8     9   ar
    10     9    10   ar
    11     5    10   ar
    12    10    11    2
    13     1    12    1
    14     1    13    1
    15     1    14    1
    16     7    15    1
    17     8    16    1
    18     9    17    1
