@<TRIPOS>MOLECULE
O=c1cc[nH]c2cnncc12
 16 17 0 0 0
SMALL
GASTEIGER
Energy = 0

@<TRIPOS>ATOM
      1 O           0.6641   -1.4758    0.0000 O.2     1  LIG1       -0.2871
      2 C           0.6641   -0.6508    0.0000 C.ar    1  LIG1        0.1910
      3 C           1.3786   -0.2383    0.0000 C.ar    1  LIG1        0.0017
      4 C           1.3786    0.5867    0.0000 C.ar    1  LIG1        0.0058
      5 N           0.6641    0.9992    0.0000 N.ar    1  LIG1       -0.3592
      6 C          -0.0503    0.5867    0.0000 C.ar    1  LIG1        0.0717
      7 C          -0.7648    0.9992    0.0000 C.ar    1  LIG1        0.0739
      8 N          -1.4793    0.5867    0.0000 N.ar    1  LIG1       -0.1556
      9 N          -1.4793   -0.2383    0.0000 N.ar    1  LIG1       -0.1569
     10 C          -0.7648   -0.6508    0.0000 C.ar    1  LIG1        0.0627
     11 C          -0.0503   -0.2383    0.0000 C.ar    1  LIG1        0.0663
     12 H           2.3325   -0.7891    0.0000 H       1  LIG1        0.0670
     13 H           2.3325    1.1375    0.0000 H       1  LIG1        0.0808
     14 H           0.6641    2.0817    0.0000 H       1  LIG1        0.1654
     15 H          -0.7648    2.1007    0.0000 H       1  LIG1        0.0869
     16 H          -0.7648   -1.7523    0.0000 H       1  LIG1        0.0856
@<TRIPOS>BOND
     1     1     2    2
     2     2     3   ar
     3     3     4   ar
     4     4     5   ar
     5     5     6   ar
     6     6     7   ar
     7     7     8   ar
     8     8     9   ar
     9     9    10   ar
    10    10    11   ar
    11     2    11   ar
    12     6    11   ar
    13     3    12    1
    14     4    13    1
    15     5    14    1
    16     7    15    1
    17    10    16    1
