@<TRIPOS>MOLECULE
O=c1nc2[nH]ccc2n[nH]1
 14 15 0 0 0
SMALL
GASTEIGER
Energy = 0

@<TRIPOS>ATOM
      1 O           1.7208   -0.7212    0.0000 O.2     1  LIG1       -0.2431
      2 C           1.0063   -0.3087    0.0000 C.ar    1  LIG1        0.3639
      3 N           1.0063    0.5163    0.0000 N.ar    1  LIG1       -0.2261
      4 N           0.2918    0.9288    0.0000 N.ar    1  LIG1       -0.1666
      5 C          -0.4227    0.5163    0.0000 C.ar    1  LIG1        0.1277
      6 C          -1.2073    0.7712    0.0000 C.ar    1  LIG1       -0.0150
      7 C          -1.6922    0.1038    0.0000 C.ar    1  LIG1        0.0057
      8 N          -1.2073   -0.5637    0.0000 N.ar    1  LIG1       -0.3444
      9 C          -0.4227   -0.3087    0.0000 C.ar    1  LIG1        0.1637
     10 N           0.2918   -0.7212    0.0000 N.ar    1  LIG1       -0.1725
     11 H           1.9438    1.0576    0.0000 H       1  LIG1        0.1937
     12 H          -1.5477    1.8188    0.0000 H       1  LIG1        0.0655
     13 H          -2.7937    0.1038    0.0000 H       1  LIG1        0.0808
     14 H          -1.5418   -1.5932    0.0000 H       1  LIG1        0.1668
@<TRIPOS>BOND
     1     1     2    2
     2     2     3   ar
     3     3     4   ar
     4     4     5   ar
     5     5     6   ar
     6     6     7   ar
     7     7     8   ar
     8     8     9   ar
     9     5     9   ar
    10     9    10   ar
    11     2    10   ar
    12     3    11    1
    13     6    12    1
    14     7    13    1
    15     8    14    1
