@<TRIPOS>MOLECULE
Cn1cnc2nc(=O)[nH]c2c1
 17 18 0 0 0
SMALL
GASTEIGER
Energy = 0

@<TRIPOS>ATOM
      1 C           2.0687   -0.7619    0.0000 C.3     1  LIG1        0.0127
      2 N           1.3542   -0.3494    0.0000 N.ar    1  LIG1       -0.3392
      3 C           1.3542    0.4756    0.0000 C.ar    1  LIG1        0.0981
      4 N           0.6397    0.8881    0.0000 N.ar    1  LIG1       -0.2162
      5 C          -0.0747    0.4756    0.0000 C.ar    1  LIG1        0.1843
      6 N          -0.8594    0.7305    0.0000 N.ar    1  LIG1       -0.1718
      7 C          -1.3443    0.0631    0.0000 C.ar    1  LIG1        0.3483
      8 O          -2.1693    0.0631    0.0000 O.2     1  LIG1       -0.2446
      9 N          -0.8594   -0.6044    0.0000 N.ar    1  LIG1       -0.3020
     10 C          -0.0747   -0.3494    0.0000 C.ar    1  LIG1        0.1043
     11 C           0.6397   -0.7619    0.0000 C.ar    1  LIG1        0.0327
     12 H           2.9355   -0.0215    0.0000 H       1  LIG1        0.0456
     13 H           2.1313   -1.4429   -0.9121 H       1  LIG1        0.0456
     14 H           2.1281   -1.4085    0.9370 H       1  LIG1        0.0456
     15 H           2.3081    1.0264    0.0000 H       1  LIG1        0.1029
     16 H          -1.1939   -1.6339    0.0000 H       1  LIG1        0.1706
     17 H           0.6397   -1.8634    0.0000 H       1  LIG1        0.0831
@<TRIPOS>BOND
     1     1     2    1
     2     2     3   ar
     3     3     4   ar
     4     4     5   ar
     5     5     6   ar
     6     6     7   ar
     7     7     8    2
     8     7     9   ar
     9     9    10   ar
    10     5    10   ar
    11    10    11   ar
    12     2    11   ar
    13     1    12    1
    14     1    13    1
    15     1    14    1
    16     3    15    1
    17     9    16    1
    18    11    17    1
