@<TRIPOS>MOLECULE
Cn1ccnnc1=O
 13 13 0 0 0
SMALL
GASTEIGER
Energy = 0

@<TRIPOS>ATOM
      1 C           0.2290   -1.3465    0.0000 C.3     1  LIG1        0.0162
      2 N           0.2290   -0.5215    0.0000 N.ar    1  LIG1       -0.2995
      3 C           0.9435   -0.1090    0.0000 C.ar    1  LIG1        0.0289
      4 C           0.9435    0.7160    0.0000 C.ar    1  LIG1        0.0663
      5 N           0.2290    1.1285    0.0000 N.ar    1  LIG1       -0.1514
      6 N          -0.4855    0.7160    0.0000 N.ar    1  LIG1       -0.0902
      7 C          -0.4855   -0.1090    0.0000 C.ar    1  LIG1        0.3665
      8 O          -1.1999   -0.5215    0.0000 O.2     1  LIG1       -0.2429
      9 H           1.3036   -1.7270    0.0000 H       1  LIG1        0.0457
     10 H          -0.3295   -1.7412   -0.9121 H       1  LIG1        0.0457
     11 H          -0.3012   -1.7212    0.9370 H       1  LIG1        0.0457
     12 H           1.8974   -0.6598    0.0000 H       1  LIG1        0.0826
     13 H           1.8974    1.2668    0.0000 H       1  LIG1        0.0863
@<TRIPOS>BOND
     1     1     2    1
     2     2     3   ar
     3     3     4   ar
     4     4     5   ar
     5     5     6   ar
     6     6     7   ar
     7     2     7   ar
     8     7     8    2
     9     1     9    1
    10     1    10    1
    11     1    11    1
    12     3    12    1
    13     4    13    1
