@<TRIPOS>MOLECULE
c1[nH]cc2ncccc12
 15 16 0 0 0
SMALL
GASTEIGER
Energy = 0

@<TRIPOS>ATOM
      1 N           1.4148    0.0147    0.0000 N.ar    1  LIG1       -0.3647
      2 C           0.9299    0.6821    0.0000 C.ar    1  LIG1        0.0109
      3 C           0.1453    0.4272    0.0000 C.ar    1  LIG1        0.0177
      4 C          -0.5692    0.8397    0.0000 C.ar    1  LIG1       -0.0497
      5 C          -1.2837    0.4272    0.0000 C.ar    1  LIG1       -0.0430
      6 C          -1.2837   -0.3978    0.0000 C.ar    1  LIG1        0.0283
      7 N          -0.5692   -0.8103    0.0000 N.ar    1  LIG1       -0.2535
      8 C           0.1453   -0.3978    0.0000 C.ar    1  LIG1        0.0882
      9 C           0.9299   -0.6527    0.0000 C.ar    1  LIG1        0.0279
     10 H           2.4973    0.0147    0.0000 H       1  LIG1        0.1648
     11 H           1.2703    1.7297    0.0000 H       1  LIG1        0.0813
     12 H          -0.5692    1.9412    0.0000 H       1  LIG1        0.0625
     13 H          -2.2376    0.9780    0.0000 H       1  LIG1        0.0633
     14 H          -2.2376   -0.9486    0.0000 H       1  LIG1        0.0830
     15 H           1.2703   -1.7003    0.0000 H       1  LIG1        0.0829
@<TRIPOS>BOND
     1     1     2   ar
     2     2     3   ar
     3     3     4   ar
     4     4     5   ar
     5     5     6   ar
     6     6     7   ar
     7     7     8   ar
     8     3     8   ar
     9     8     9   ar
    10     1     9   ar
    11     1    10    1
    12     2    11    1
    13     4    12    1
    14     5    13    1
    15     6    14    1
    16     9    15    1
