@<TRIPOS>MOLECULE
O=c1ncc2ccncc2[nH]1
 16 17 0 0 0
SMALL
GASTEIGER
Energy = 0

@<TRIPOS>ATOM
      1 O           1.8920    0.7205    0.0000 O.2     1  LIG1       -0.2447
      2 C           1.1776    0.3080    0.0000 C.ar    1  LIG1        0.3463
      3 N           0.4631    0.7205    0.0000 N.ar    1  LIG1       -0.3045
      4 C          -0.2514    0.3080    0.0000 C.ar    1  LIG1        0.0701
      5 C          -0.9658    0.7205    0.0000 C.ar    1  LIG1        0.0516
      6 N          -1.6803    0.3080    0.0000 N.ar    1  LIG1       -0.2612
      7 C          -1.6803   -0.5170    0.0000 C.ar    1  LIG1        0.0283
      8 C          -0.9658   -0.9295    0.0000 C.ar    1  LIG1       -0.0330
      9 C          -0.2514   -0.5170    0.0000 C.ar    1  LIG1        0.0195
     10 C           0.4631   -0.9295    0.0000 C.ar    1  LIG1        0.0422
     11 N           1.1776   -0.5170    0.0000 N.ar    1  LIG1       -0.2009
     12 H           0.4631    1.8030    0.0000 H       1  LIG1        0.1705
     13 H          -0.9658    1.8220    0.0000 H       1  LIG1        0.0851
     14 H          -2.6342   -1.0678    0.0000 H       1  LIG1        0.0830
     15 H          -0.9658   -2.0310    0.0000 H       1  LIG1        0.0640
     16 H           0.4631   -2.0310    0.0000 H       1  LIG1        0.0838
@<TRIPOS>BOND
     1     1     2    2
     2     2     3   ar
     3     3     4   ar
     4     4     5   ar
     5     5     6   ar
     6     6     7   ar
     7     7     8   ar
     8     8     9   ar
     9     4     9   ar
    10     9    10   ar
    11    10    11   ar
    12     2    11   ar
    13     3    12    1
    14     5    13    1
    15     7    14    1
    16     8    15    1
    17    10    16    1
