@<TRIPOS>MOLECULE
c1ccc2cnncc2c1
 16 17 0 0 0
SMALL
GASTEIGER
Energy = 0

@<TRIPOS>ATOM
      1 C           1.4749   -0.4125    0.0000 C.ar    1  LIG1       -0.0611
      2 C           1.4749    0.4125    0.0000 C.ar    1  LIG1       -0.0611
      3 C           0.7604    0.8250    0.0000 C.ar    1  LIG1       -0.0525
      4 C           0.0460    0.4125    0.0000 C.ar    1  LIG1        0.0034
      5 C          -0.6685    0.8250    0.0000 C.ar    1  LIG1        0.0577
      6 N          -1.3830    0.4125    0.0000 N.ar    1  LIG1       -0.1571
      7 N          -1.3830   -0.4125    0.0000 N.ar    1  LIG1       -0.1571
      8 C          -0.6685   -0.8250    0.0000 C.ar    1  LIG1        0.0577
      9 C           0.0460   -0.4125    0.0000 C.ar    1  LIG1        0.0034
     10 C           0.7604   -0.8250    0.0000 C.ar    1  LIG1       -0.0525
     11 H           2.4288   -0.9633    0.0000 H       1  LIG1        0.0618
     12 H           2.4288    0.9633    0.0000 H       1  LIG1        0.0618
     13 H           0.7604    1.9265    0.0000 H       1  LIG1        0.0624
     14 H          -0.6685    1.9265    0.0000 H       1  LIG1        0.0854
     15 H          -0.6685   -1.9265    0.0000 H       1  LIG1        0.0854
     16 H           0.7604   -1.9265    0.0000 H       1  LIG1        0.0624
@<TRIPOS>BOND
     1     1     2   ar
     2     2     3   ar
     3     3     4   ar
     4     4     5   ar
     5     5     6   ar
     6     6     7   ar
     7     7     8   ar
     8     8     9   ar
     9     4     9   ar
    10     9    10   ar
    11     1    10   ar
    12     1    11    1
    13     2    12    1
    14     3    13    1
    15     5    14    1
    16     8    15    1
    17    10    16    1
