@<TRIPOS>MOLECULE
O=c1ccc2ccc[nH]n12
 16 17 0 0 0
SMALL
GASTEIGER
Energy = 0

@<TRIPOS>ATOM
      1 O           1.0566   -1.2514    0.0000 O.2     1  LIG1       -0.2659
      2 C           0.8017   -0.4668    0.0000 C.ar    1  LIG1        0.2702
      3 C           1.2866    0.2007    0.0000 C.ar    1  LIG1        0.0067
      4 C           0.8017    0.8681    0.0000 C.ar    1  LIG1       -0.0310
      5 C           0.0171    0.6132    0.0000 C.ar    1  LIG1        0.0673
      6 C          -0.6974    1.0257    0.0000 C.ar    1  LIG1       -0.0348
      7 C          -1.4119    0.6132    0.0000 C.ar    1  LIG1       -0.0423
      8 C          -1.4119   -0.2118    0.0000 C.ar    1  LIG1        0.0195
      9 N          -0.6974   -0.6243    0.0000 N.ar    1  LIG1       -0.2974
     10 N           0.0171   -0.2118    0.0000 N.ar    1  LIG1       -0.2198
     11 H           2.3881    0.2007    0.0000 H       1  LIG1        0.0673
     12 H           1.1421    1.9157    0.0000 H       1  LIG1        0.0640
     13 H          -0.6974    2.1272    0.0000 H       1  LIG1        0.0639
     14 H          -2.3658    1.1640    0.0000 H       1  LIG1        0.0633
     15 H          -2.3658   -0.7626    0.0000 H       1  LIG1        0.0823
     16 H          -0.6974   -1.7068    0.0000 H       1  LIG1        0.1867
@<TRIPOS>BOND
     1     1     2    2
     2     2     3   ar
     3     3     4   ar
     4     4     5   ar
     5     5     6   ar
     6     6     7   ar
     7     7     8   ar
     8     8     9   ar
     9     9    10   ar
    10     2    10   ar
    11     5    10   ar
    12     3    11    1
    13     4    12    1
    14     6    13    1
    15     7    14    1
    16     8    15    1
    17     9    16    1
