@<TRIPOS>MOLECULE
Cn1c(=O)ccn2nncc12
 17 18 0 0 0
SMALL
GASTEIGER
Energy = 0

@<TRIPOS>ATOM
      1 C           0.3148   -1.4244    0.0000 C.3     1  LIG1        0.0167
      2 N           0.3148   -0.5994    0.0000 N.ar    1  LIG1       -0.2950
      3 C           1.0292   -0.1869    0.0000 C.ar    1  LIG1        0.2540
      4 O           1.7437   -0.5994    0.0000 O.2     1  LIG1       -0.2676
      5 C           1.0292    0.6381    0.0000 C.ar    1  LIG1        0.0212
      6 C           0.3148    1.0506    0.0000 C.ar    1  LIG1        0.0381
      7 N          -0.3997    0.6381    0.0000 N.ar    1  LIG1       -0.2034
      8 N          -1.1843    0.8930    0.0000 N.ar    1  LIG1       -0.0594
      9 N          -1.6692    0.2256    0.0000 N.ar    1  LIG1       -0.1354
     10 C          -1.1843   -0.4418    0.0000 C.ar    1  LIG1        0.0941
     11 C          -0.3997   -0.1869    0.0000 C.ar    1  LIG1        0.1590
     12 H           1.3894   -1.8049    0.0000 H       1  LIG1        0.0457
     13 H          -0.2437   -1.8191   -0.9121 H       1  LIG1        0.0457
     14 H          -0.2154   -1.7991    0.9370 H       1  LIG1        0.0457
     15 H           1.9831    1.1888    0.0000 H       1  LIG1        0.0687
     16 H           0.3148    2.1521    0.0000 H       1  LIG1        0.0833
     17 H          -1.5247   -1.4894    0.0000 H       1  LIG1        0.0886
@<TRIPOS>BOND
     1     1     2    1
     2     2     3   ar
     3     3     4    2
     4     3     5   ar
     5     5     6   ar
     6     6     7   ar
     7     7     8   ar
     8     8     9   ar
     9     9    10   ar
    10    10    11   ar
    11     2    11   ar
    12     7    11   ar
    13     1    12    1
    14     1    13    1
    15     1    14    1
    16     5    15    1
    17     6    16    1
    18    10    17    1
