@<TRIPOS>MOLECULE
O=c1cnc(=O)[nH][nH]1
 11 11 0 0 0
SMALL
GASTEIGER
Energy = 0

@<TRIPOS>ATOM
      1 O          -0.0130   -1.6575    0.0000 O.2     1  LIG1       -0.2648
      2 C          -0.0130   -0.8325    0.0000 C.ar    1  LIG1        0.2814
      3 N           0.7015   -0.4200    0.0000 N.ar    1  LIG1       -0.2609
      4 N           0.7015    0.4050    0.0000 N.ar    1  LIG1       -0.2469
      5 C          -0.0130    0.8175    0.0000 C.ar    1  LIG1        0.3605
      6 O          -0.0130    1.6425    0.0000 O.2     1  LIG1       -0.2433
      7 N          -0.7274    0.4050    0.0000 N.ar    1  LIG1       -0.1950
      8 C          -0.7274   -0.4200    0.0000 C.ar    1  LIG1        0.0986
      9 H           1.6390   -0.9613    0.0000 H       1  LIG1        0.1901
     10 H           1.6390    0.9463    0.0000 H       1  LIG1        0.1916
     11 H          -1.6813   -0.9707    0.0000 H       1  LIG1        0.0887
@<TRIPOS>BOND
     1     1     2    2
     2     2     3   ar
     3     3     4   ar
     4     4     5   ar
     5     5     6    2
     6     5     7   ar
     7     7     8   ar
     8     2     8   ar
     9     3     9    1
    10     4    10    1
    11     8    11    1
