@<TRIPOS>MOLECULE
c1nnc2nnncc2n1
 12 13 0 0 0
SMALL
GASTEIGER
Energy = 0

@<TRIPOS>ATOM
      1 C           1.4397   -0.4312    0.0000 C.ar    1  LIG1        0.1391
      2 N           1.4397    0.3938    0.0000 N.ar    1  LIG1       -0.1357
      3 N           0.7253    0.8063    0.0000 N.ar    1  LIG1       -0.1242
      4 C           0.0108    0.3938    0.0000 C.ar    1  LIG1        0.2246
      5 N          -0.7037    0.8063    0.0000 N.ar    1  LIG1       -0.1058
      6 N          -1.4181    0.3938    0.0000 N.ar    1  LIG1       -0.0411
      7 N          -1.4181   -0.4312    0.0000 N.ar    1  LIG1       -0.1355
      8 C          -0.7037   -0.8437    0.0000 C.ar    1  LIG1        0.0807
      9 C           0.0108   -0.4312    0.0000 C.ar    1  LIG1        0.1330
     10 N           0.7253   -0.8437    0.0000 N.ar    1  LIG1       -0.2288
     11 H           2.3936   -0.9819    0.0000 H       1  LIG1        0.1066
     12 H          -0.7037   -1.9452    0.0000 H       1  LIG1        0.0871
@<TRIPOS>BOND
     1     1     2   ar
     2     2     3   ar
     3     3     4   ar
     4     4     5   ar
     5     5     6   ar
     6     6     7   ar
     7     7     8   ar
     8     8     9   ar
     9     4     9   ar
    10     9    10   ar
    11     1    10   ar
    12     1    11    1
    13     8    12    1
