@<TRIPOS>MOLECULE
Cn1cnc2oncc2c1=O
 16 17 0 0 0
SMALL
GASTEIGER
Energy = 0

@<TRIPOS>ATOM
      1 C          -1.7794   -0.6003    0.0000 C.3     1  LIG1        0.0161
      2 N          -1.0649   -0.1878    0.0000 N.ar    1  LIG1       -0.3016
      3 C          -1.0649    0.6372    0.0000 C.ar    1  LIG1        0.1023
      4 N          -0.3504    1.0497    0.0000 N.ar    1  LIG1       -0.2001
      5 C           0.3641    0.6372    0.0000 C.ar    1  LIG1        0.2648
      6 C           0.3641   -0.1878    0.0000 C.ar    1  LIG1        0.1249
      7 C           1.1487   -0.4428    0.0000 C.ar    1  LIG1        0.0847
      8 N           1.6336    0.2247    0.0000 N.ar    1  LIG1       -0.0834
      9 O           1.1487    0.8921    0.0000 O.2     1  LIG1       -0.3343
     10 C          -0.3504   -0.6003    0.0000 C.ar    1  LIG1        0.2661
     11 O          -0.3504   -1.4253    0.0000 O.2     1  LIG1       -0.2668
     12 H          -2.6462    0.1401    0.0000 H       1  LIG1        0.0457
     13 H          -1.8420   -1.2813    0.9121 H       1  LIG1        0.0457
     14 H          -1.8388   -1.2469   -0.9370 H       1  LIG1        0.0457
     15 H          -2.0188    1.1880    0.0000 H       1  LIG1        0.1031
     16 H           1.4891   -1.4904    0.0000 H       1  LIG1        0.0872
@<TRIPOS>BOND
     1     1     2    1
     2     2     3   ar
     3     3     4   ar
     4     4     5   ar
     5     5     6   ar
     6     6     7   ar
     7     7     8   ar
     8     8     9   ar
     9     5     9   ar
    10     6    10   ar
    11     2    10   ar
    12    10    11    2
    13     1    12    1
    14     1    13    1
    15     1    14    1
    16     3    15    1
    17     7    16    1
