@<TRIPOS>MOLECULE
Cn1c(=O)[nH]c2cccnc12
 18 19 0 0 0
SMALL
GASTEIGER
Energy = 0

@<TRIPOS>ATOM
      1 C           0.8262   -1.3177    0.0000 C.3     1  LIG1        0.0181
      2 N           0.5713   -0.5331    0.0000 N.ar    1  LIG1       -0.2800
      3 C           1.0562    0.1343    0.0000 C.ar    1  LIG1        0.3285
      4 O           1.8812    0.1343    0.0000 O.2     1  LIG1       -0.2465
      5 N           0.5713    0.8018    0.0000 N.ar    1  LIG1       -0.3046
      6 C          -0.2133    0.5468    0.0000 C.ar    1  LIG1        0.0862
      7 C          -0.9278    0.9593    0.0000 C.ar    1  LIG1       -0.0332
      8 C          -1.6423    0.5468    0.0000 C.ar    1  LIG1       -0.0415
      9 C          -1.6423   -0.2782    0.0000 C.ar    1  LIG1        0.0300
     10 N          -0.9278   -0.6907    0.0000 N.ar    1  LIG1       -0.2358
     11 C          -0.2133   -0.2782    0.0000 C.ar    1  LIG1        0.1607
     12 H           1.9658   -1.3476    0.0000 H       1  LIG1        0.0458
     13 H           0.4170   -1.8656   -0.9121 H       1  LIG1        0.0458
     14 H           0.4377   -1.8379    0.9370 H       1  LIG1        0.0458
     15 H           0.9058    1.8313    0.0000 H       1  LIG1        0.1705
     16 H          -0.9278    2.0608    0.0000 H       1  LIG1        0.0640
     17 H          -2.5962    1.0976    0.0000 H       1  LIG1        0.0633
     18 H          -2.5962   -0.8290    0.0000 H       1  LIG1        0.0830
@<TRIPOS>BOND
     1     1     2    1
     2     2     3   ar
     3     3     4    2
     4     3     5   ar
     5     5     6   ar
     6     6     7   ar
     7     7     8   ar
     8     8     9   ar
     9     9    10   ar
    10    10    11   ar
    11     2    11   ar
    12     6    11   ar
    13     1    12    1
    14     1    13    1
    15     1    14    1
    16     5    15    1
    17     7    16    1
    18     8    17    1
    19     9    18    1
