@<TRIPOS>MOLECULE
Cn1ccn2cncc12
 16 17 0 0 0
SMALL
GASTEIGER
Energy = 0

@<TRIPOS>ATOM
      1 C           0.9386   -1.2947    0.0000 C.3     1  LIG1        0.0133
      2 N           0.6837   -0.5101    0.0000 N.ar    1  LIG1       -0.3338
      3 C           1.1686    0.1573    0.0000 C.ar    1  LIG1        0.0227
      4 C           0.6837    0.8248    0.0000 C.ar    1  LIG1        0.0287
      5 N          -0.1010    0.5698    0.0000 N.ar    1  LIG1       -0.2905
      6 C          -0.8856    0.8248    0.0000 C.ar    1  LIG1        0.1015
      7 N          -1.3705    0.1573    0.0000 N.ar    1  LIG1       -0.2415
      8 C          -0.8856   -0.5101    0.0000 C.ar    1  LIG1        0.0703
      9 C          -0.1010   -0.2552    0.0000 C.ar    1  LIG1        0.1374
     10 H           2.0782   -1.3246    0.0000 H       1  LIG1        0.0456
     11 H           0.5294   -1.8426   -0.9121 H       1  LIG1        0.0456
     12 H           0.5501   -1.8149    0.9370 H       1  LIG1        0.0456
     13 H           2.2701    0.1573    0.0000 H       1  LIG1        0.0824
     14 H           1.0241    1.8724    0.0000 H       1  LIG1        0.0828
     15 H          -1.2260    1.8724    0.0000 H       1  LIG1        0.1032
     16 H          -1.2260   -1.5577    0.0000 H       1  LIG1        0.0867
@<TRIPOS>BOND
     1     1     2    1
     2     2     3   ar
     3     3     4   ar
     4     4     5   ar
     5     5     6   ar
     6     6     7   ar
     7     7     8   ar
     8     8     9   ar
     9     2     9   ar
    10     5     9   ar
    11     1    10    1
    12     1    11    1
    13     1    12    1
    14     3    13    1
    15     4    14    1
    16     6    15    1
    17     8    16    1
