@<TRIPOS>MOLECULE
Cn1cnc2cnncc2c1=O
 18 19 0 0 0
SMALL
GASTEIGER
Energy = 0

@<TRIPOS>ATOM
      1 C           1.9144   -0.5977    0.0000 C.3     1  LIG1        0.0161
      2 N           1.1999   -0.1852    0.0000 N.ar    1  LIG1       -0.3018
      3 C           1.1999    0.6398    0.0000 C.ar    1  LIG1        0.0990
      4 N           0.4855    1.0523    0.0000 N.ar    1  LIG1       -0.2353
      5 C          -0.2290    0.6398    0.0000 C.ar    1  LIG1        0.0991
      6 C          -0.9435    1.0523    0.0000 C.ar    1  LIG1        0.0761
      7 N          -1.6580    0.6398    0.0000 N.ar    1  LIG1       -0.1555
      8 N          -1.6580   -0.1852    0.0000 N.ar    1  LIG1       -0.1568
      9 C          -0.9435   -0.5977    0.0000 C.ar    1  LIG1        0.0643
     10 C          -0.2290   -0.1852    0.0000 C.ar    1  LIG1        0.0861
     11 C           0.4855   -0.5977    0.0000 C.ar    1  LIG1        0.2629
     12 O           0.4855   -1.4227    0.0000 O.2     1  LIG1       -0.2669
     13 H           2.7812    0.1427    0.0000 H       1  LIG1        0.0457
     14 H           1.9770   -1.2787   -0.9121 H       1  LIG1        0.0457
     15 H           1.9738   -1.2443    0.9370 H       1  LIG1        0.0457
     16 H           2.1538    1.1905    0.0000 H       1  LIG1        0.1030
     17 H          -0.9435    2.1538    0.0000 H       1  LIG1        0.0870
     18 H          -0.9435   -1.6992    0.0000 H       1  LIG1        0.0856
@<TRIPOS>BOND
     1     1     2    1
     2     2     3   ar
     3     3     4   ar
     4     4     5   ar
     5     5     6   ar
     6     6     7   ar
     7     7     8   ar
     8     8     9   ar
     9     9    10   ar
    10     5    10   ar
    11    10    11   ar
    12     2    11   ar
    13    11    12    2
    14     1    13    1
    15     1    14    1
    16     1    15    1
    17     3    16    1
    18     6    17    1
    19     9    18    1
