@<TRIPOS>MOLECULE
Cn1c(=O)ccc2nncn12
 17 18 0 0 0
SMALL
GASTEIGER
Energy = 0

@<TRIPOS>ATOM
      1 C           0.3148    1.4130    0.0000 C.3     1  LIG1        0.0325
      2 N           0.3148    0.5880    0.0000 N.ar    1  LIG1       -0.2457
      3 N          -0.3997    0.1755    0.0000 N.ar    1  LIG1       -0.2176
      4 C          -1.1843    0.4304    0.0000 C.ar    1  LIG1        0.1403
      5 N          -1.6692   -0.2370    0.0000 N.ar    1  LIG1       -0.1357
      6 N          -1.1843   -0.9045    0.0000 N.ar    1  LIG1       -0.1283
      7 C          -0.3997   -0.6495    0.0000 C.ar    1  LIG1        0.1760
      8 C           0.3148   -1.0620    0.0000 C.ar    1  LIG1       -0.0105
      9 C           1.0292   -0.6495    0.0000 C.ar    1  LIG1        0.0079
     10 C           1.0292    0.1755    0.0000 C.ar    1  LIG1        0.2660
     11 O           1.7437    0.5880    0.0000 O.2     1  LIG1       -0.2663
     12 H          -0.7598    1.7935    0.0000 H       1  LIG1        0.0473
     13 H           0.8733    1.8077   -0.9121 H       1  LIG1        0.0473
     14 H           0.8450    1.7877    0.9370 H       1  LIG1        0.0473
     15 H          -1.5247    1.4780    0.0000 H       1  LIG1        0.1066
     16 H           0.3148   -2.1635    0.0000 H       1  LIG1        0.0657
     17 H           1.9831   -1.2002    0.0000 H       1  LIG1        0.0673
@<TRIPOS>BOND
     1     1     2    1
     2     2     3   ar
     3     3     4   ar
     4     4     5   ar
     5     5     6   ar
     6     6     7   ar
     7     3     7   ar
     8     7     8   ar
     9     8     9   ar
    10     9    10   ar
    11     2    10   ar
    12    10    11    2
    13     1    12    1
    14     1    13    1
    15     1    14    1
    16     4    15    1
    17     8    16    1
    18     9    17    1
