@<TRIPOS>MOLECULE
Cn1c(=O)cc2ncccn12
 18 19 0 0 0
SMALL
GASTEIGER
Energy = 0

@<TRIPOS>ATOM
      1 C           0.8373    1.3257    0.0000 C.3     1  LIG1        0.0325
      2 N           0.5823    0.5411    0.0000 N.ar    1  LIG1       -0.2471
      3 N          -0.2023    0.2862    0.0000 N.ar    1  LIG1       -0.2392
      4 C          -0.9168    0.6987    0.0000 C.ar    1  LIG1        0.0311
      5 C          -1.6312    0.2862    0.0000 C.ar    1  LIG1       -0.0254
      6 C          -1.6312   -0.5388    0.0000 C.ar    1  LIG1        0.0314
      7 N          -0.9168   -0.9513    0.0000 N.ar    1  LIG1       -0.2360
      8 C          -0.2023   -0.5388    0.0000 C.ar    1  LIG1        0.1573
      9 C           0.5823   -0.7938    0.0000 C.ar    1  LIG1        0.0484
     10 C           1.0672   -0.1263    0.0000 C.ar    1  LIG1        0.2693
     11 O           1.8922   -0.1263    0.0000 O.2     1  LIG1       -0.2661
     12 H          -0.0671    2.0198    0.0000 H       1  LIG1        0.0473
     13 H           1.4904    1.5284   -0.9121 H       1  LIG1        0.0473
     14 H           1.4574    1.5182    0.9370 H       1  LIG1        0.0473
     15 H          -0.9168    1.8002    0.0000 H       1  LIG1        0.0830
     16 H          -2.5851    0.8369    0.0000 H       1  LIG1        0.0648
     17 H          -2.5851   -1.0895    0.0000 H       1  LIG1        0.0831
     18 H           0.9227   -1.8414    0.0000 H       1  LIG1        0.0710
@<TRIPOS>BOND
     1     1     2    1
     2     2     3   ar
     3     3     4   ar
     4     4     5   ar
     5     5     6   ar
     6     6     7   ar
     7     7     8   ar
     8     3     8   ar
     9     8     9   ar
    10     9    10   ar
    11     2    10   ar
    12    10    11    2
    13     1    12    1
    14     1    13    1
    15     1    14    1
    16     4    15    1
    17     5    16    1
    18     6    17    1
    19     9    18    1
