@<TRIPOS>MOLECULE
O=c1cc[nH]c2nccn12
 15 16 0 0 0
SMALL
GASTEIGER
Energy = 0

@<TRIPOS>ATOM
      1 O           0.4940   -1.4636    0.0000 O.2     1  LIG1       -0.2672
      2 C           0.4940   -0.6386    0.0000 C.ar    1  LIG1        0.2593
      3 C           1.2084   -0.2261    0.0000 C.ar    1  LIG1        0.0194
      4 C           1.2084    0.5989    0.0000 C.ar    1  LIG1        0.0100
      5 N           0.4940    1.0114    0.0000 N.ar    1  LIG1       -0.3315
      6 C          -0.2205    0.5989    0.0000 C.ar    1  LIG1        0.2152
      7 N          -1.0051    0.8538    0.0000 N.ar    1  LIG1       -0.2203
      8 C          -1.4900    0.1864    0.0000 C.ar    1  LIG1        0.0480
      9 C          -1.0051   -0.4811    0.0000 C.ar    1  LIG1        0.0342
     10 N          -0.2205   -0.2261    0.0000 N.ar    1  LIG1       -0.2524
     11 H           2.1623   -0.7768    0.0000 H       1  LIG1        0.0686
     12 H           2.1623    1.1496    0.0000 H       1  LIG1        0.0809
     13 H           0.4940    2.0939    0.0000 H       1  LIG1        0.1682
     14 H          -2.5915    0.1864    0.0000 H       1  LIG1        0.0846
     15 H          -1.3455   -1.5287    0.0000 H       1  LIG1        0.0830
@<TRIPOS>BOND
     1     1     2    2
     2     2     3   ar
     3     3     4   ar
     4     4     5   ar
     5     5     6   ar
     6     6     7   ar
     7     7     8   ar
     8     8     9   ar
     9     9    10   ar
    10     2    10   ar
    11     6    10   ar
    12     3    11    1
    13     4    12    1
    14     5    13    1
    15     8    14    1
    16     9    15    1
