@<TRIPOS>MOLECULE
Cn1ncc2ncccc2c1=O
 19 20 0 0 0
SMALL
GASTEIGER
Energy = 0

@<TRIPOS>ATOM
      1 C           1.8744   -0.6001    0.0000 C.3     1  LIG1        0.0340
      2 N           1.1599   -0.1876    0.0000 N.ar    1  LIG1       -0.2320
      3 N           1.1599    0.6374    0.0000 N.ar    1  LIG1       -0.1747
      4 C           0.4455    1.0499    0.0000 C.ar    1  LIG1        0.0741
      5 C          -0.2690    0.6374    0.0000 C.ar    1  LIG1        0.0959
      6 N          -0.9835    1.0499    0.0000 N.ar    1  LIG1       -0.2532
      7 C          -1.6979    0.6374    0.0000 C.ar    1  LIG1        0.0283
      8 C          -1.6979   -0.1876    0.0000 C.ar    1  LIG1       -0.0428
      9 C          -0.9835   -0.6001    0.0000 C.ar    1  LIG1       -0.0458
     10 C          -0.2690   -0.1876    0.0000 C.ar    1  LIG1        0.0678
     11 C           0.4455   -0.6001    0.0000 C.ar    1  LIG1        0.2762
     12 O           0.4455   -1.4251    0.0000 O.2     1  LIG1       -0.2655
     13 H           2.7412    0.1403    0.0000 H       1  LIG1        0.0474
     14 H           1.9370   -1.2811   -0.9121 H       1  LIG1        0.0474
     15 H           1.9338   -1.2467    0.9370 H       1  LIG1        0.0474
     16 H           0.4455    2.1514    0.0000 H       1  LIG1        0.0869
     17 H          -2.6518    1.1881    0.0000 H       1  LIG1        0.0830
     18 H          -2.6518   -0.7383    0.0000 H       1  LIG1        0.0633
     19 H          -0.9835   -1.7016    0.0000 H       1  LIG1        0.0626
@<TRIPOS>BOND
     1     1     2    1
     2     2     3   ar
     3     3     4   ar
     4     4     5   ar
     5     5     6   ar
     6     6     7   ar
     7     7     8   ar
     8     8     9   ar
     9     9    10   ar
    10     5    10   ar
    11    10    11   ar
    12     2    11   ar
    13    11    12    2
    14     1    13    1
    15     1    14    1
    16     1    15    1
    17     4    16    1
    18     7    17    1
    19     8    18    1
    20     9    19    1
