@<TRIPOS>MOLECULE
Cn1c(=O)oc2ccccc12
 18 19 0 0 0
SMALL
GASTEIGER
Energy = 0

@<TRIPOS>ATOM
      1 C           0.8052   -1.3387    0.0000 C.3     1  LIG1        0.0183
      2 N           0.5503   -0.5541    0.0000 N.ar    1  LIG1       -0.2772
      3 C           1.0352    0.1134    0.0000 C.ar    1  LIG1        0.4210
      4 O           1.8602    0.1134    0.0000 O.2     1  LIG1       -0.2226
      5 O           0.5503    0.7808    0.0000 O.2     1  LIG1       -0.4075
      6 C          -0.2344    0.5259    0.0000 C.ar    1  LIG1        0.1570
      7 C          -0.9488    0.9384    0.0000 C.ar    1  LIG1       -0.0171
      8 C          -1.6633    0.5259    0.0000 C.ar    1  LIG1       -0.0582
      9 C          -1.6633   -0.2991    0.0000 C.ar    1  LIG1       -0.0596
     10 C          -0.9488   -0.7116    0.0000 C.ar    1  LIG1       -0.0344
     11 C          -0.2344   -0.2991    0.0000 C.ar    1  LIG1        0.0898
     12 H           1.9448   -1.3686    0.0000 H       1  LIG1        0.0458
     13 H           0.3960   -1.8866   -0.9121 H       1  LIG1        0.0458
     14 H           0.4167   -1.8589    0.9370 H       1  LIG1        0.0458
     15 H          -0.9488    2.0399    0.0000 H       1  LIG1        0.0655
     16 H          -2.6172    1.0767    0.0000 H       1  LIG1        0.0619
     17 H          -2.6172   -0.8499    0.0000 H       1  LIG1        0.0618
     18 H          -0.9488   -1.8131    0.0000 H       1  LIG1        0.0639
@<TRIPOS>BOND
     1     1     2    1
     2     2     3   ar
     3     3     4    2
     4     3     5   ar
     5     5     6   ar
     6     6     7   ar
     7     7     8   ar
     8     8     9   ar
     9     9    10   ar
    10    10    11   ar
    11     2    11   ar
    12     6    11   ar
    13     1    12    1
    14     1    13    1
    15     1    14    1
    16     7    15    1
    17     8    16    1
    18     9    17    1
    19    10    18    1
