@<TRIPOS>MOLECULE
Cn1nc2ccccc2n1
 17 18 0 0 0
SMALL
GASTEIGER
Energy = 0

@<TRIPOS>ATOM
      1 C           1.9880    0.0000    0.0000 C.3     1  LIG1        0.0499
      2 N           1.1630    0.0000    0.0000 N.ar    1  LIG1       -0.1854
      3 N           0.6781    0.6674    0.0000 N.ar    1  LIG1       -0.1524
      4 C          -0.1065    0.4125    0.0000 C.ar    1  LIG1        0.1127
      5 C          -0.8210    0.8250    0.0000 C.ar    1  LIG1       -0.0324
      6 C          -1.5355    0.4125    0.0000 C.ar    1  LIG1       -0.0596
      7 C          -1.5355   -0.4125    0.0000 C.ar    1  LIG1       -0.0596
      8 C          -0.8210   -0.8250    0.0000 C.ar    1  LIG1       -0.0324
      9 C          -0.1065   -0.4125    0.0000 C.ar    1  LIG1        0.1127
     10 N           0.6781   -0.6674    0.0000 N.ar    1  LIG1       -0.1524
     11 H           2.3685    1.0746    0.0000 H       1  LIG1        0.0490
     12 H           2.3827   -0.5585   -0.9121 H       1  LIG1        0.0490
     13 H           2.3627   -0.5302    0.9370 H       1  LIG1        0.0490
     14 H          -0.8210    1.9265    0.0000 H       1  LIG1        0.0640
     15 H          -2.4894    0.9633    0.0000 H       1  LIG1        0.0618
     16 H          -2.4894   -0.9633    0.0000 H       1  LIG1        0.0618
     17 H          -0.8210   -1.9265    0.0000 H       1  LIG1        0.0640
@<TRIPOS>BOND
     1     1     2    1
     2     2     3   ar
     3     3     4   ar
     4     4     5   ar
     5     5     6   ar
     6     6     7   ar
     7     7     8   ar
     8     8     9   ar
     9     4     9   ar
    10     9    10   ar
    11     2    10   ar
    12     1    11    1
    13     1    12    1
    14     1    13    1
    15     5    14    1
    16     6    15    1
    17     7    16    1
    18     8    17    1
