@<TRIPOS>MOLECULE
O=c1[nH]nc2ccccn12
 15 16 0 0 0
SMALL
GASTEIGER
Energy = 0

@<TRIPOS>ATOM
      1 O           1.0139   -1.2774    0.0000 O.2     1  LIG1       -0.2446
      2 C           0.7589   -0.4928    0.0000 C.ar    1  LIG1        0.3484
      3 N           1.2439    0.1747    0.0000 N.ar    1  LIG1       -0.2260
      4 N           0.7589    0.8421    0.0000 N.ar    1  LIG1       -0.1515
      5 C          -0.0257    0.5872    0.0000 C.ar    1  LIG1        0.1615
      6 C          -0.7402    0.9997    0.0000 C.ar    1  LIG1       -0.0170
      7 C          -1.4546    0.5872    0.0000 C.ar    1  LIG1       -0.0569
      8 C          -1.4546   -0.2378    0.0000 C.ar    1  LIG1       -0.0449
      9 C          -0.7402   -0.6503    0.0000 C.ar    1  LIG1        0.0161
     10 N          -0.0257   -0.2378    0.0000 N.ar    1  LIG1       -0.2510
     11 H           2.3264    0.1747    0.0000 H       1  LIG1        0.1937
     12 H          -0.7402    2.1012    0.0000 H       1  LIG1        0.0655
     13 H          -2.4085    1.1379    0.0000 H       1  LIG1        0.0619
     14 H          -2.4085   -0.7885    0.0000 H       1  LIG1        0.0632
     15 H          -0.7402   -1.7518    0.0000 H       1  LIG1        0.0815
@<TRIPOS>BOND
     1     1     2    2
     2     2     3   ar
     3     3     4   ar
     4     4     5   ar
     5     5     6   ar
     6     6     7   ar
     7     7     8   ar
     8     8     9   ar
     9     9    10   ar
    10     2    10   ar
    11     5    10   ar
    12     3    11    1
    13     6    12    1
    14     7    13    1
    15     8    14    1
    16     9    15    1
