@<TRIPOS>MOLECULE
O=c1[nH]ccc2cccn12
 16 17 0 0 0
SMALL
GASTEIGER
Energy = 0

@<TRIPOS>ATOM
      1 O           0.4672   -1.4310    0.0000 O.2     1  LIG1       -0.2462
      2 C           0.4672   -0.6060    0.0000 C.ar    1  LIG1        0.3311
      3 N           1.1816   -0.1935    0.0000 N.ar    1  LIG1       -0.3140
      4 C           1.1816    0.6315    0.0000 C.ar    1  LIG1        0.0083
      5 C           0.4672    1.0440    0.0000 C.ar    1  LIG1       -0.0216
      6 C          -0.2473    0.6315    0.0000 C.ar    1  LIG1        0.0522
      7 C          -1.0319    0.8864    0.0000 C.ar    1  LIG1       -0.0363
      8 C          -1.5168    0.2190    0.0000 C.ar    1  LIG1       -0.0431
      9 C          -1.0319   -0.4485    0.0000 C.ar    1  LIG1        0.0147
     10 N          -0.2473   -0.1935    0.0000 N.ar    1  LIG1       -0.2696
     11 H           2.1191   -0.7347    0.0000 H       1  LIG1        0.1698
     12 H           2.1355    1.1822    0.0000 H       1  LIG1        0.0809
     13 H           0.4672    2.1455    0.0000 H       1  LIG1        0.0653
     14 H          -1.3723    1.9340    0.0000 H       1  LIG1        0.0639
     15 H          -2.6183    0.2190    0.0000 H       1  LIG1        0.0633
     16 H          -1.3723   -1.4961    0.0000 H       1  LIG1        0.0814
@<TRIPOS>BOND
     1     1     2    2
     2     2     3   ar
     3     3     4   ar
     4     4     5   ar
     5     5     6   ar
     6     6     7   ar
     7     7     8   ar
     8     8     9   ar
     9     9    10   ar
    10     2    10   ar
    11     6    10   ar
    12     3    11    1
    13     4    12    1
    14     5    13    1
    15     7    14    1
    16     8    15    1
    17     9    16    1
