@<TRIPOS>MOLECULE
Cn1nnc2ccccc12
 17 18 0 0 0
SMALL
GASTEIGER
Energy = 0

@<TRIPOS>ATOM
      1 C           1.0335   -1.3138    0.0000 C.3     1  LIG1        0.0325
      2 N           0.7786   -0.5291    0.0000 N.ar    1  LIG1       -0.2470
      3 N           1.2635    0.1383    0.0000 N.ar    1  LIG1       -0.0648
      4 N           0.7786    0.8057    0.0000 N.ar    1  LIG1       -0.1295
      5 C          -0.0060    0.5508    0.0000 C.ar    1  LIG1        0.1127
      6 C          -0.7205    0.9633    0.0000 C.ar    1  LIG1       -0.0324
      7 C          -1.4350    0.5508    0.0000 C.ar    1  LIG1       -0.0596
      8 C          -1.4350   -0.2742    0.0000 C.ar    1  LIG1       -0.0596
      9 C          -0.7205   -0.6867    0.0000 C.ar    1  LIG1       -0.0345
     10 C          -0.0060   -0.2742    0.0000 C.ar    1  LIG1        0.0887
     11 H           2.1731   -1.3437    0.0000 H       1  LIG1        0.0473
     12 H           0.6243   -1.8617   -0.9121 H       1  LIG1        0.0473
     13 H           0.6450   -1.8340    0.9370 H       1  LIG1        0.0473
     14 H          -0.7205    2.0648    0.0000 H       1  LIG1        0.0640
     15 H          -2.3889    1.1016    0.0000 H       1  LIG1        0.0618
     16 H          -2.3889   -0.8250    0.0000 H       1  LIG1        0.0618
     17 H          -0.7205   -1.7882    0.0000 H       1  LIG1        0.0639
@<TRIPOS>BOND
     1     1     2    1
     2     2     3   ar
     3     3     4   ar
     4     4     5   ar
     5     5     6   ar
     6     6     7   ar
     7     7     8   ar
     8     8     9   ar
     9     9    10   ar
    10     2    10   ar
    11     5    10   ar
    12     1    11    1
    13     1    12    1
    14     1    13    1
    15     6    14    1
    16     7    15    1
    17     8    16    1
    18     9    17    1
