@<TRIPOS>MOLECULE
c1ncn2cccnc12
 14 15 0 0 0
SMALL
GASTEIGER
Energy = 0

@<TRIPOS>ATOM
      1 C           1.2862    0.4197    0.0000 C.ar    1  LIG1       -0.0270
      2 C           0.5717    0.8322    0.0000 C.ar    1  LIG1        0.0140
      3 N          -0.1427    0.4197    0.0000 N.ar    1  LIG1       -0.2905
      4 C          -0.9274    0.6747    0.0000 C.ar    1  LIG1        0.1015
      5 N          -1.4123    0.0072    0.0000 N.ar    1  LIG1       -0.2415
      6 C          -0.9274   -0.6602    0.0000 C.ar    1  LIG1        0.0720
      7 C          -0.1427   -0.4053    0.0000 C.ar    1  LIG1        0.1568
      8 N           0.5717   -0.8178    0.0000 N.ar    1  LIG1       -0.2359
      9 C           1.2862   -0.4053    0.0000 C.ar    1  LIG1        0.0313
     10 H           2.2401    0.9705    0.0000 H       1  LIG1        0.0647
     11 H           0.5717    1.9337    0.0000 H       1  LIG1        0.0814
     12 H          -1.2678    1.7223    0.0000 H       1  LIG1        0.1032
     13 H          -1.2678   -1.7078    0.0000 H       1  LIG1        0.0867
     14 H           2.2401   -0.9561    0.0000 H       1  LIG1        0.0831
@<TRIPOS>BOND
     1     1     2   ar
     2     2     3   ar
     3     3     4   ar
     4     4     5   ar
     5     5     6   ar
     6     6     7   ar
     7     3     7   ar
     8     7     8   ar
     9     8     9   ar
    10     1     9   ar
    11     1    10    1
    12     2    11    1
    13     4    12    1
    14     6    13    1
    15     9    14    1
