@<TRIPOS>MOLECULE
Cn1cnc(=O)c2ccoc12
 17 18 0 0 0
SMALL
GASTEIGER
Energy = 0

@<TRIPOS>ATOM
      1 C          -0.4469   -1.6715    0.0000 C.3     1  LIG1        0.0160
      2 N          -0.4469   -0.8465    0.0000 N.ar    1  LIG1       -0.3051
      3 C          -1.1614   -0.4340    0.0000 C.ar    1  LIG1        0.1022
      4 N          -1.1614    0.3910    0.0000 N.ar    1  LIG1       -0.1987
      5 C          -0.4469    0.8035    0.0000 C.ar    1  LIG1        0.2839
      6 O          -0.4469    1.6285    0.0000 O.2     1  LIG1       -0.2650
      7 C           0.2676    0.3910    0.0000 C.ar    1  LIG1        0.1042
      8 C           0.2676   -0.4340    0.0000 C.ar    1  LIG1        0.2141
      9 O           1.0522   -0.6889    0.0000 O.2     1  LIG1       -0.4464
     10 C           1.5371   -0.0215    0.0000 C.ar    1  LIG1        0.0952
     11 C           1.0522    0.6460    0.0000 C.ar    1  LIG1       -0.0092
     12 H          -1.5215   -2.0520    0.0000 H       1  LIG1        0.0457
     13 H           0.1116   -2.0662    0.9121 H       1  LIG1        0.0457
     14 H           0.0833   -2.0462   -0.9370 H       1  LIG1        0.0457
     15 H          -2.1153   -0.9848    0.0000 H       1  LIG1        0.1031
     16 H           2.6386   -0.0215    0.0000 H       1  LIG1        0.1030
     17 H           1.3926    1.6936    0.0000 H       1  LIG1        0.0657
@<TRIPOS>BOND
     1     1     2    1
     2     2     3   ar
     3     3     4   ar
     4     4     5   ar
     5     5     6    2
     6     5     7   ar
     7     7     8   ar
     8     2     8   ar
     9     8     9   ar
    10     9    10   ar
    11    10    11   ar
    12     7    11   ar
    13     1    12    1
    14     1    13    1
    15     1    14    1
    16     3    15    1
    17    10    16    1
    18    11    17    1
