@<TRIPOS>MOLECULE
Cn1cnc2cccnc12
 17 18 0 0 0
SMALL
GASTEIGER
Energy = 0

@<TRIPOS>ATOM
      1 C           1.0649   -1.3007    0.0000 C.3     1  LIG1        0.0146
      2 N           0.8100   -0.5161    0.0000 N.ar    1  LIG1       -0.3182
      3 C           1.2949    0.1514    0.0000 C.ar    1  LIG1        0.0979
      4 N           0.8100    0.8188    0.0000 N.ar    1  LIG1       -0.2341
      5 C           0.0254    0.5639    0.0000 C.ar    1  LIG1        0.1079
      6 C          -0.6891    0.9764    0.0000 C.ar    1  LIG1       -0.0312
      7 C          -1.4036    0.5639    0.0000 C.ar    1  LIG1       -0.0414
      8 C          -1.4036   -0.2611    0.0000 C.ar    1  LIG1        0.0300
      9 N          -0.6891   -0.6736    0.0000 N.ar    1  LIG1       -0.2358
     10 C           0.0254   -0.2611    0.0000 C.ar    1  LIG1        0.1600
     11 H           2.2045   -1.3306    0.0000 H       1  LIG1        0.0457
     12 H           0.6557   -1.8486   -0.9121 H       1  LIG1        0.0457
     13 H           0.6764   -1.8209    0.9370 H       1  LIG1        0.0457
     14 H           2.3964    0.1514    0.0000 H       1  LIG1        0.1029
     15 H          -0.6891    2.0779    0.0000 H       1  LIG1        0.0640
     16 H          -2.3575    1.1147    0.0000 H       1  LIG1        0.0633
     17 H          -2.3575   -0.8119    0.0000 H       1  LIG1        0.0830
@<TRIPOS>BOND
     1     1     2    1
     2     2     3   ar
     3     3     4   ar
     4     4     5   ar
     5     5     6   ar
     6     6     7   ar
     7     7     8   ar
     8     8     9   ar
     9     9    10   ar
    10     2    10   ar
    11     5    10   ar
    12     1    11    1
    13     1    12    1
    14     1    13    1
    15     3    14    1
    16     6    15    1
    17     7    16    1
    18     8    17    1
