@<TRIPOS>MOLECULE
O=c1[nH]c2nccnc2[nH]1
 14 15 0 0 0
SMALL
GASTEIGER
Energy = 0

@<TRIPOS>ATOM
      1 O           1.9704    0.0000    0.0000 O.2     1  LIG1       -0.2467
      2 C           1.1454    0.0000    0.0000 C.ar    1  LIG1        0.3272
      3 N           0.6605    0.6674    0.0000 N.ar    1  LIG1       -0.2897
      4 C          -0.1242    0.4125    0.0000 C.ar    1  LIG1        0.1779
      5 N          -0.8386    0.8250    0.0000 N.ar    1  LIG1       -0.2331
      6 C          -1.5531    0.4125    0.0000 C.ar    1  LIG1        0.0481
      7 C          -1.5531   -0.4125    0.0000 C.ar    1  LIG1        0.0481
      8 N          -0.8386   -0.8250    0.0000 N.ar    1  LIG1       -0.2331
      9 C          -0.1242   -0.4125    0.0000 C.ar    1  LIG1        0.1779
     10 N           0.6605   -0.6674    0.0000 N.ar    1  LIG1       -0.2897
     11 H           0.9950    1.6969    0.0000 H       1  LIG1        0.1719
     12 H          -2.5070    0.9633    0.0000 H       1  LIG1        0.0846
     13 H          -2.5070   -0.9633    0.0000 H       1  LIG1        0.0846
     14 H           0.9950   -1.6969    0.0000 H       1  LIG1        0.1719
@<TRIPOS>BOND
     1     1     2    2
     2     2     3   ar
     3     3     4   ar
     4     4     5   ar
     5     5     6   ar
     6     6     7   ar
     7     7     8   ar
     8     8     9   ar
     9     4     9   ar
    10     9    10   ar
    11     2    10   ar
    12     3    11    1
    13     6    12    1
    14     7    13    1
    15    10    14    1
