@<TRIPOS>MOLECULE
O=c1ccn2ccc(=O)n12
 14 15 0 0 0
SMALL
GASTEIGER
Energy = 0

@<TRIPOS>ATOM
      1 O           1.0396   -1.1003    0.0000 O.2     1  LIG1       -0.2657
      2 C           0.7846   -0.3156    0.0000 C.ar    1  LIG1        0.2746
      3 C           1.2695    0.3518    0.0000 C.ar    1  LIG1        0.0228
      4 C           0.7846    1.0192    0.0000 C.ar    1  LIG1        0.0330
      5 N           0.0000    0.7643    0.0000 N.ar    1  LIG1       -0.2568
      6 C          -0.7846    1.0192    0.0000 C.ar    1  LIG1        0.0330
      7 C          -1.2695    0.3518    0.0000 C.ar    1  LIG1        0.0228
      8 C          -0.7846   -0.3156    0.0000 C.ar    1  LIG1        0.2746
      9 O          -1.0396   -1.1003    0.0000 O.2     1  LIG1       -0.2657
     10 N           0.0000   -0.0607    0.0000 N.ar    1  LIG1       -0.1762
     11 H           2.3710    0.3518    0.0000 H       1  LIG1        0.0687
     12 H           1.1250    2.0668    0.0000 H       1  LIG1        0.0831
     13 H          -1.1250    2.0668    0.0000 H       1  LIG1        0.0831
     14 H          -2.3710    0.3518    0.0000 H       1  LIG1        0.0687
@<TRIPOS>BOND
     1     1     2    2
     2     2     3   ar
     3     3     4   ar
     4     4     5   ar
     5     5     6   ar
     6     6     7   ar
     7     7     8   ar
     8     8     9    2
     9     8    10   ar
    10     2    10   ar
    11     5    10   ar
    12     3    11    1
    13     4    12    1
    14     6    13    1
    15     7    14    1
