@<TRIPOS>MOLECULE
Cn1cnc2cc[nH]c(=O)c12
 18 19 0 0 0
SMALL
GASTEIGER
Energy = 0

@<TRIPOS>ATOM
      1 C           1.1526   -1.1377    0.0000 C.3     1  LIG1        0.0134
      2 N           0.8976   -0.3531    0.0000 N.ar    1  LIG1       -0.3290
      3 C           1.3825    0.3143    0.0000 C.ar    1  LIG1        0.0969
      4 N           0.8976    0.9818    0.0000 N.ar    1  LIG1       -0.2355
      5 C           0.1130    0.7268    0.0000 C.ar    1  LIG1        0.0957
      6 C           0.1130   -0.0982    0.0000 C.ar    1  LIG1        0.1335
      7 C          -0.6015   -0.5107    0.0000 C.ar    1  LIG1        0.2745
      8 O          -0.6015   -1.3357    0.0000 O.2     1  LIG1       -0.2656
      9 N          -1.3159   -0.0982    0.0000 N.ar    1  LIG1       -0.3273
     10 C          -1.3159    0.7268    0.0000 C.ar    1  LIG1        0.0071
     11 C          -0.6015    1.1393    0.0000 C.ar    1  LIG1       -0.0180
     12 H           2.2922   -1.1675    0.0000 H       1  LIG1        0.0456
     13 H           0.7435   -1.6857   -0.9121 H       1  LIG1        0.0456
     14 H           0.7641   -1.6580    0.9370 H       1  LIG1        0.0456
     15 H           2.4840    0.3143    0.0000 H       1  LIG1        0.1029
     16 H          -2.2534   -0.6394    0.0000 H       1  LIG1        0.1684
     17 H          -2.2698    1.2775    0.0000 H       1  LIG1        0.0808
     18 H          -0.6015    2.2408    0.0000 H       1  LIG1        0.0654
@<TRIPOS>BOND
     1     1     2    1
     2     2     3   ar
     3     3     4   ar
     4     4     5   ar
     5     5     6   ar
     6     2     6   ar
     7     6     7   ar
     8     7     8    2
     9     7     9   ar
    10     9    10   ar
    11    10    11   ar
    12     5    11   ar
    13     1    12    1
    14     1    13    1
    15     1    14    1
    16     3    15    1
    17     9    16    1
    18    10    17    1
    19    11    18    1
