@<TRIPOS>MOLECULE
Cn1nnc2[nH]ccc(=O)c12
 17 18 0 0 0
SMALL
GASTEIGER
Energy = 0

@<TRIPOS>ATOM
      1 C           1.1235   -1.1592    0.0000 C.3     1  LIG1        0.0327
      2 N           0.8686   -0.3746    0.0000 N.ar    1  LIG1       -0.2417
      3 N           1.3535    0.2928    0.0000 N.ar    1  LIG1       -0.0632
      4 N           0.8686    0.9603    0.0000 N.ar    1  LIG1       -0.1111
      5 C           0.0840    0.7053    0.0000 C.ar    1  LIG1        0.1838
      6 C           0.0840   -0.1197    0.0000 C.ar    1  LIG1        0.1519
      7 C          -0.6305   -0.5322    0.0000 C.ar    1  LIG1        0.2088
      8 O          -0.6305   -1.3572    0.0000 O.2     1  LIG1       -0.2855
      9 C          -1.3450   -0.1197    0.0000 C.ar    1  LIG1        0.0033
     10 C          -1.3450    0.7053    0.0000 C.ar    1  LIG1        0.0072
     11 N          -0.6305    1.1178    0.0000 N.ar    1  LIG1       -0.3430
     12 H           2.2631   -1.1891    0.0000 H       1  LIG1        0.0473
     13 H           0.7143   -1.7071   -0.9121 H       1  LIG1        0.0473
     14 H           0.7350   -1.6794    0.9370 H       1  LIG1        0.0473
     15 H          -2.2989   -0.6705    0.0000 H       1  LIG1        0.0671
     16 H          -2.2989    1.2561    0.0000 H       1  LIG1        0.0808
     17 H          -0.6305    2.2003    0.0000 H       1  LIG1        0.1669
@<TRIPOS>BOND
     1     1     2    1
     2     2     3   ar
     3     3     4   ar
     4     4     5   ar
     5     5     6   ar
     6     2     6   ar
     7     6     7   ar
     8     7     8    2
     9     7     9   ar
    10     9    10   ar
    11    10    11   ar
    12     5    11   ar
    13     1    12    1
    14     1    13    1
    15     1    14    1
    16     9    15    1
    17    10    16    1
    18    11    17    1
