@<TRIPOS>MOLECULE
c1nc2ncncc2o1
 12 13 0 0 0
SMALL
GASTEIGER
Energy = 0

@<TRIPOS>ATOM
      1 O           0.9284   -0.6631    0.0000 O.2     1  LIG1       -0.4393
      2 C           1.4133    0.0043    0.0000 C.ar    1  LIG1        0.1847
      3 N           0.9284    0.6717    0.0000 N.ar    1  LIG1       -0.1964
      4 C           0.1438    0.4168    0.0000 C.ar    1  LIG1        0.2014
      5 N          -0.5707    0.8293    0.0000 N.ar    1  LIG1       -0.2132
      6 C          -1.2852    0.4168    0.0000 C.ar    1  LIG1        0.1185
      7 N          -1.2852   -0.4082    0.0000 N.ar    1  LIG1       -0.2399
      8 C          -0.5707   -0.8207    0.0000 C.ar    1  LIG1        0.0753
      9 C           0.1438   -0.4082    0.0000 C.ar    1  LIG1        0.1917
     10 H           2.5148    0.0043    0.0000 H       1  LIG1        0.1255
     11 H          -2.2391    0.9676    0.0000 H       1  LIG1        0.1047
     12 H          -0.5707   -1.9222    0.0000 H       1  LIG1        0.0869
@<TRIPOS>BOND
     1     1     2   ar
     2     2     3   ar
     3     3     4   ar
     4     4     5   ar
     5     5     6   ar
     6     6     7   ar
     7     7     8   ar
     8     8     9   ar
     9     1     9   ar
    10     4     9   ar
    11     2    10    1
    12     6    11    1
    13     8    12    1
