@<TRIPOS>MOLECULE
O=c1ccc2onnc2[nH]1
 13 14 0 0 0
SMALL
GASTEIGER
Energy = 0

@<TRIPOS>ATOM
      1 O          -1.8012    0.7242    0.0000 O.2     1  LIG1       -0.2679
      2 C          -1.0867    0.3117    0.0000 C.ar    1  LIG1        0.2505
      3 N          -0.3723    0.7242    0.0000 N.ar    1  LIG1       -0.3030
      4 C           0.3422    0.3117    0.0000 C.ar    1  LIG1        0.2042
      5 C           0.3422   -0.5133    0.0000 C.ar    1  LIG1        0.2044
      6 O           1.1268   -0.7683    0.0000 O.2     1  LIG1       -0.3342
      7 N           1.6118   -0.1008    0.0000 N.ar    1  LIG1        0.0363
      8 N           1.1268    0.5666    0.0000 N.ar    1  LIG1       -0.0925
      9 C          -0.3723   -0.9258    0.0000 C.ar    1  LIG1       -0.0078
     10 C          -1.0867   -0.5133    0.0000 C.ar    1  LIG1        0.0065
     11 H          -0.3723    1.8067    0.0000 H       1  LIG1        0.1705
     12 H          -0.3723   -2.0273    0.0000 H       1  LIG1        0.0658
     13 H          -2.0406   -1.0640    0.0000 H       1  LIG1        0.0673
@<TRIPOS>BOND
     1     1     2    2
     2     2     3   ar
     3     3     4   ar
     4     4     5   ar
     5     5     6   ar
     6     6     7   ar
     7     7     8   ar
     8     4     8   ar
     9     5     9   ar
    10     9    10   ar
    11     2    10   ar
    12     3    11    1
    13     9    12    1
    14    10    13    1
