@<TRIPOS>MOLECULE
c1cc2ccoc2[nH]1
 13 14 0 0 0
SMALL
GASTEIGER
Energy = 0

@<TRIPOS>ATOM
      1 N           0.7999   -0.6283    0.0000 N.ar    1  LIG1       -0.3320
      2 C           1.2849    0.0391    0.0000 C.ar    1  LIG1        0.0055
      3 C           0.7999    0.7066    0.0000 C.ar    1  LIG1       -0.0334
      4 C           0.0153    0.4516    0.0000 C.ar    1  LIG1        0.0392
      5 C           0.0153   -0.3734    0.0000 C.ar    1  LIG1        0.2054
      6 O          -0.7693   -0.6283    0.0000 O.2     1  LIG1       -0.4468
      7 C          -1.2542    0.0391    0.0000 C.ar    1  LIG1        0.0950
      8 C          -0.7693    0.7066    0.0000 C.ar    1  LIG1       -0.0145
      9 H           1.1344   -1.6578    0.0000 H       1  LIG1        0.1682
     10 H           2.3864    0.0391    0.0000 H       1  LIG1        0.0808
     11 H           1.1402    1.7542    0.0000 H       1  LIG1        0.0640
     12 H          -2.3557    0.0391    0.0000 H       1  LIG1        0.1030
     13 H          -1.1097    1.7542    0.0000 H       1  LIG1        0.0656
@<TRIPOS>BOND
     1     1     2   ar
     2     2     3   ar
     3     3     4   ar
     4     4     5   ar
     5     1     5   ar
     6     5     6   ar
     7     6     7   ar
     8     7     8   ar
     9     4     8   ar
    10     1     9    1
    11     2    10    1
    12     3    11    1
    13     7    12    1
    14     8    13    1
