@<TRIPOS>MOLECULE
Cn1ccc2n[nH]c(=O)c2c1
 18 19 0 0 0
SMALL
GASTEIGER
Energy = 0

@<TRIPOS>ATOM
      1 C           1.9657   -0.5953    0.0000 C.3     1  LIG1        0.0113
      2 N           1.2512   -0.1828    0.0000 N.ar    1  LIG1       -0.3554
      3 C           1.2512    0.6422    0.0000 C.ar    1  LIG1        0.0063
      4 C           0.5367    1.0547    0.0000 C.ar    1  LIG1       -0.0177
      5 C          -0.1777    0.6422    0.0000 C.ar    1  LIG1        0.0992
      6 N          -0.9624    0.8971    0.0000 N.ar    1  LIG1       -0.1707
      7 N          -1.4473    0.2297    0.0000 N.ar    1  LIG1       -0.2421
      8 C          -0.9624   -0.4378    0.0000 C.ar    1  LIG1        0.2753
      9 O          -1.2173   -1.2224    0.0000 O.2     1  LIG1       -0.2657
     10 C          -0.1777   -0.1828    0.0000 C.ar    1  LIG1        0.0837
     11 C           0.5367   -0.5953    0.0000 C.ar    1  LIG1        0.0187
     12 H           2.8325    0.1451    0.0000 H       1  LIG1        0.0455
     13 H           2.0283   -1.2763   -0.9121 H       1  LIG1        0.0455
     14 H           2.0251   -1.2419    0.9370 H       1  LIG1        0.0455
     15 H           2.2051    1.1930    0.0000 H       1  LIG1        0.0809
     16 H           0.5367    2.1562    0.0000 H       1  LIG1        0.0654
     17 H          -2.5298    0.2297    0.0000 H       1  LIG1        0.1921
     18 H           0.5367   -1.6968    0.0000 H       1  LIG1        0.0817
@<TRIPOS>BOND
     1     1     2    1
     2     2     3   ar
     3     3     4   ar
     4     4     5   ar
     5     5     6   ar
     6     6     7   ar
     7     7     8   ar
     8     8     9    2
     9     8    10   ar
    10     5    10   ar
    11    10    11   ar
    12     2    11   ar
    13     1    12    1
    14     1    13    1
    15     1    14    1
    16     3    15    1
    17     4    16    1
    18     7    17    1
    19    11    18    1
