@<TRIPOS>MOLECULE
Cn1nc2ccoc2cc1=O
 17 18 0 0 0
SMALL
GASTEIGER
Energy = 0

@<TRIPOS>ATOM
      1 C           1.5981    0.8492    0.0000 C.3     1  LIG1        0.0340
      2 N           0.8836    0.4367    0.0000 N.ar    1  LIG1       -0.2319
      3 N           0.1691    0.8492    0.0000 N.ar    1  LIG1       -0.1652
      4 C          -0.5453    0.4367    0.0000 C.ar    1  LIG1        0.1294
      5 C          -1.3300    0.6916    0.0000 C.ar    1  LIG1        0.0039
      6 C          -1.8149    0.0242    0.0000 C.ar    1  LIG1        0.0947
      7 O          -1.3300   -0.6433    0.0000 O.2     1  LIG1       -0.4611
      8 C          -0.5453   -0.3883    0.0000 C.ar    1  LIG1        0.1598
      9 C           0.1691   -0.8008    0.0000 C.ar    1  LIG1        0.0488
     10 C           0.8836   -0.3883    0.0000 C.ar    1  LIG1        0.2705
     11 O           1.5981   -0.8008    0.0000 O.2     1  LIG1       -0.2661
     12 H           1.3904    1.9701    0.0000 H       1  LIG1        0.0474
     13 H           2.2191    0.5629   -0.9121 H       1  LIG1        0.0474
     14 H           2.1878    0.5774    0.9370 H       1  LIG1        0.0474
     15 H          -1.6704    1.7392    0.0000 H       1  LIG1        0.0671
     16 H          -2.9164    0.0242    0.0000 H       1  LIG1        0.1030
     17 H           0.1691   -1.9023    0.0000 H       1  LIG1        0.0710
@<TRIPOS>BOND
     1     1     2    1
     2     2     3   ar
     3     3     4   ar
     4     4     5   ar
     5     5     6   ar
     6     6     7   ar
     7     7     8   ar
     8     4     8   ar
     9     8     9   ar
    10     9    10   ar
    11     2    10   ar
    12    10    11    2
    13     1    12    1
    14     1    13    1
    15     1    14    1
    16     5    15    1
    17     6    16    1
    18     9    17    1
