@<TRIPOS>MOLECULE
c1cc2oncn2c1
 12 13 0 0 0
SMALL
GASTEIGER
Energy = 0

@<TRIPOS>ATOM
      1 O           0.7302   -0.6498    0.0000 O.2     1  LIG1       -0.3352
      2 N           1.2151    0.0177    0.0000 N.ar    1  LIG1       -0.0659
      3 C           0.7302    0.6851    0.0000 C.ar    1  LIG1        0.1426
      4 N          -0.0544    0.4302    0.0000 N.ar    1  LIG1       -0.2732
      5 C          -0.8390    0.6851    0.0000 C.ar    1  LIG1        0.0143
      6 C          -1.3240    0.0177    0.0000 C.ar    1  LIG1       -0.0400
      7 C          -0.8390   -0.6498    0.0000 C.ar    1  LIG1        0.0029
      8 C          -0.0544   -0.3948    0.0000 C.ar    1  LIG1        0.2358
      9 H           1.0706    1.7327    0.0000 H       1  LIG1        0.1067
     10 H          -1.1793    1.7327    0.0000 H       1  LIG1        0.0814
     11 H          -2.4255    0.0177    0.0000 H       1  LIG1        0.0634
     12 H          -1.1793   -1.6974    0.0000 H       1  LIG1        0.0672
@<TRIPOS>BOND
     1     1     2   ar
     2     2     3   ar
     3     3     4   ar
     4     4     5   ar
     5     5     6   ar
     6     6     7   ar
     7     7     8   ar
     8     1     8   ar
     9     4     8   ar
    10     3     9    1
    11     5    10    1
    12     6    11    1
    13     7    12    1
