@<TRIPOS>MOLECULE
Cn1nnc2cccnc12
 16 17 0 0 0
SMALL
GASTEIGER
Energy = 0

@<TRIPOS>ATOM
      1 C           1.0448   -1.3030    0.0000 C.3     1  LIG1        0.0341
      2 N           0.7898   -0.5184    0.0000 N.ar    1  LIG1       -0.2297
      3 N           1.2747    0.1490    0.0000 N.ar    1  LIG1       -0.0635
      4 N           0.7898    0.8165    0.0000 N.ar    1  LIG1       -0.1278
      5 C           0.0052    0.5615    0.0000 C.ar    1  LIG1        0.1315
      6 C          -0.7093    0.9740    0.0000 C.ar    1  LIG1       -0.0294
      7 C          -1.4237    0.5615    0.0000 C.ar    1  LIG1       -0.0414
      8 C          -1.4237   -0.2635    0.0000 C.ar    1  LIG1        0.0301
      9 N          -0.7093   -0.6760    0.0000 N.ar    1  LIG1       -0.2346
     10 C           0.0052   -0.2635    0.0000 C.ar    1  LIG1        0.1782
     11 H           2.1844   -1.3328    0.0000 H       1  LIG1        0.0474
     12 H           0.6357   -1.8510   -0.9121 H       1  LIG1        0.0474
     13 H           0.6563   -1.8233    0.9370 H       1  LIG1        0.0474
     14 H          -0.7093    2.0755    0.0000 H       1  LIG1        0.0641
     15 H          -2.3776    1.1122    0.0000 H       1  LIG1        0.0633
     16 H          -2.3776   -0.8142    0.0000 H       1  LIG1        0.0830
@<TRIPOS>BOND
     1     1     2    1
     2     2     3   ar
     3     3     4   ar
     4     4     5   ar
     5     5     6   ar
     6     6     7   ar
     7     7     8   ar
     8     8     9   ar
     9     9    10   ar
    10     2    10   ar
    11     5    10   ar
    12     1    11    1
    13     1    12    1
    14     1    13    1
    15     6    14    1
    16     7    15    1
    17     8    16    1
