@<TRIPOS>MOLECULE
O=c1ccnc2nccnn12
 15 16 0 0 0
SMALL
GASTEIGER
Energy = 0

@<TRIPOS>ATOM
      1 O           0.6450   -1.4725    0.0000 O.2     1  LIG1       -0.2657
      2 C           0.6450   -0.6475    0.0000 C.ar    1  LIG1        0.2758
      3 C           1.3595   -0.2350    0.0000 C.ar    1  LIG1        0.0230
      4 C           1.3595    0.5900    0.0000 C.ar    1  LIG1        0.0366
      5 N           0.6450    1.0025    0.0000 N.ar    1  LIG1       -0.2188
      6 C          -0.0694    0.5900    0.0000 C.ar    1  LIG1        0.2544
      7 N          -0.7839    1.0025    0.0000 N.ar    1  LIG1       -0.2174
      8 C          -1.4984    0.5900    0.0000 C.ar    1  LIG1        0.0512
      9 C          -1.4984   -0.2350    0.0000 C.ar    1  LIG1        0.0667
     10 N          -0.7839   -0.6475    0.0000 N.ar    1  LIG1       -0.1676
     11 N          -0.0694   -0.2350    0.0000 N.ar    1  LIG1       -0.1611
     12 H           2.3134   -0.7858    0.0000 H       1  LIG1        0.0687
     13 H           2.3134    1.1408    0.0000 H       1  LIG1        0.0832
     14 H          -2.4523    1.1408    0.0000 H       1  LIG1        0.0847
     15 H          -2.4523   -0.7858    0.0000 H       1  LIG1        0.0863
@<TRIPOS>BOND
     1     1     2    2
     2     2     3   ar
     3     3     4   ar
     4     4     5   ar
     5     5     6   ar
     6     6     7   ar
     7     7     8   ar
     8     8     9   ar
     9     9    10   ar
    10    10    11   ar
    11     2    11   ar
    12     6    11   ar
    13     3    12    1
    14     4    13    1
    15     8    14    1
    16     9    15    1
