@<TRIPOS>MOLECULE
O=c1ncn2cn[nH]c2n1
 13 14 0 0 0
SMALL
GASTEIGER
Energy = 0

@<TRIPOS>ATOM
      1 O           1.7566   -0.7166    0.0000 O.2     1  LIG1       -0.2425
      2 C           1.0421   -0.3041    0.0000 C.ar    1  LIG1        0.3721
      3 N           1.0421    0.5209    0.0000 N.ar    1  LIG1       -0.1813
      4 C           0.3276    0.9334    0.0000 C.ar    1  LIG1        0.1094
      5 N          -0.3868    0.5209    0.0000 N.ar    1  LIG1       -0.2577
      6 C          -1.1714    0.7758    0.0000 C.ar    1  LIG1        0.1242
      7 N          -1.6564    0.1084    0.0000 N.ar    1  LIG1       -0.1609
      8 N          -1.1714   -0.5591    0.0000 N.ar    1  LIG1       -0.2444
      9 C          -0.3868   -0.3041    0.0000 C.ar    1  LIG1        0.2358
     10 N           0.3276   -0.7166    0.0000 N.ar    1  LIG1       -0.1554
     11 H           0.3276    2.0349    0.0000 H       1  LIG1        0.1035
     12 H          -1.5117    1.8234    0.0000 H       1  LIG1        0.1052
     13 H          -1.5059   -1.5886    0.0000 H       1  LIG1        0.1920
@<TRIPOS>BOND
     1     1     2    2
     2     2     3   ar
     3     3     4   ar
     4     4     5   ar
     5     5     6   ar
     6     6     7   ar
     7     7     8   ar
     8     8     9   ar
     9     5     9   ar
    10     9    10   ar
    11     2    10   ar
    12     4    11    1
    13     6    12    1
    14     8    13    1
