@<TRIPOS>MOLECULE
Cn1ccc2c(=O)cc[nH]c12
 19 20 0 0 0
SMALL
GASTEIGER
Energy = 0

@<TRIPOS>ATOM
      1 C           1.1552   -1.4947    0.0000 C.3     1  LIG1        0.0132
      2 N           0.9002   -0.7101    0.0000 N.ar    1  LIG1       -0.3363
      3 C           1.3852   -0.0427    0.0000 C.ar    1  LIG1        0.0069
      4 C           0.9002    0.6248    0.0000 C.ar    1  LIG1       -0.0313
      5 C           0.1156    0.3698    0.0000 C.ar    1  LIG1        0.0636
      6 C           0.1156   -0.4552    0.0000 C.ar    1  LIG1        0.1219
      7 N          -0.5989   -0.8677    0.0000 N.ar    1  LIG1       -0.3470
      8 C          -1.3133   -0.4552    0.0000 C.ar    1  LIG1        0.0071
      9 C          -1.3133    0.3698    0.0000 C.ar    1  LIG1        0.0018
     10 C          -0.5989    0.7823    0.0000 C.ar    1  LIG1        0.1909
     11 O          -0.5989    1.6073    0.0000 O.2     1  LIG1       -0.2871
     12 H           2.2948   -1.5245    0.0000 H       1  LIG1        0.0456
     13 H           0.7461   -2.0427   -0.9121 H       1  LIG1        0.0456
     14 H           0.7667   -2.0150    0.9370 H       1  LIG1        0.0456
     15 H           2.4867   -0.0427    0.0000 H       1  LIG1        0.0809
     16 H           1.2405    1.6724    0.0000 H       1  LIG1        0.0640
     17 H          -0.5989   -1.9502    0.0000 H       1  LIG1        0.1667
     18 H          -2.2672   -1.0059    0.0000 H       1  LIG1        0.0808
     19 H          -2.2672    0.9205    0.0000 H       1  LIG1        0.0670
@<TRIPOS>BOND
     1     1     2    1
     2     2     3   ar
     3     3     4   ar
     4     4     5   ar
     5     5     6   ar
     6     2     6   ar
     7     6     7   ar
     8     7     8   ar
     9     8     9   ar
    10     9    10   ar
    11     5    10   ar
    12    10    11    2
    13     1    12    1
    14     1    13    1
    15     1    14    1
    16     3    15    1
    17     4    16    1
    18     7    17    1
    19     8    18    1
    20     9    19    1
