@<TRIPOS>MOLECULE
Cn1cnc(=O)c2ncccc12
 19 20 0 0 0
SMALL
GASTEIGER
Energy = 0

@<TRIPOS>ATOM
      1 C           0.5661   -1.6980    0.0000 C.3     1  LIG1        0.0133
      2 N           0.5661   -0.8730    0.0000 N.ar    1  LIG1       -0.3330
      3 C           1.2806   -0.4605    0.0000 C.ar    1  LIG1        0.1001
      4 N           1.2806    0.3645    0.0000 N.ar    1  LIG1       -0.1975
      5 C           0.5661    0.7770    0.0000 C.ar    1  LIG1        0.2990
      6 O           0.5661    1.6020    0.0000 O.2     1  LIG1       -0.2634
      7 C          -0.1484    0.3645    0.0000 C.ar    1  LIG1        0.1532
      8 N          -0.8628    0.7770    0.0000 N.ar    1  LIG1       -0.2480
      9 C          -1.5773    0.3645    0.0000 C.ar    1  LIG1        0.0286
     10 C          -1.5773   -0.4605    0.0000 C.ar    1  LIG1       -0.0416
     11 C          -0.8628   -0.8730    0.0000 C.ar    1  LIG1       -0.0345
     12 C          -0.1484   -0.4605    0.0000 C.ar    1  LIG1        0.0738
     13 H           1.6407   -2.0785    0.0000 H       1  LIG1        0.0456
     14 H           0.0076   -2.0927   -0.9121 H       1  LIG1        0.0456
     15 H           0.0359   -2.0727    0.9370 H       1  LIG1        0.0456
     16 H           2.2345   -1.0113    0.0000 H       1  LIG1        0.1030
     17 H          -2.5312    0.9153    0.0000 H       1  LIG1        0.0830
     18 H          -2.5312   -1.0113    0.0000 H       1  LIG1        0.0633
     19 H          -0.8628   -1.9745    0.0000 H       1  LIG1        0.0639
@<TRIPOS>BOND
     1     1     2    1
     2     2     3   ar
     3     3     4   ar
     4     4     5   ar
     5     5     6    2
     6     5     7   ar
     7     7     8   ar
     8     8     9   ar
     9     9    10   ar
    10    10    11   ar
    11    11    12   ar
    12     2    12   ar
    13     7    12   ar
    14     1    13    1
    15     1    14    1
    16     1    15    1
    17     3    16    1
    18     9    17    1
    19    10    18    1
    20    11    19    1
