@<TRIPOS>MOLECULE
Cn1cnc2[nH]cnc2c1=O
 17 18 0 0 0
SMALL
GASTEIGER
Energy = 0

@<TRIPOS>ATOM
      1 C          -1.7568   -0.5787    0.0000 C.3     1  LIG1        0.0161
      2 N          -1.0423   -0.1662    0.0000 N.ar    1  LIG1       -0.3005
      3 C          -1.0423    0.6588    0.0000 C.ar    1  LIG1        0.1007
      4 N          -0.3278    1.0713    0.0000 N.ar    1  LIG1       -0.2179
      5 C           0.3867    0.6588    0.0000 C.ar    1  LIG1        0.1646
      6 C           0.3867   -0.1662    0.0000 C.ar    1  LIG1        0.1719
      7 N           1.1713   -0.4212    0.0000 N.ar    1  LIG1       -0.2288
      8 C           1.6562    0.2463    0.0000 C.ar    1  LIG1        0.0958
      9 N           1.1713    0.9137    0.0000 N.ar    1  LIG1       -0.3291
     10 C          -0.3278   -0.5787    0.0000 C.ar    1  LIG1        0.2813
     11 O          -0.3278   -1.4037    0.0000 O.2     1  LIG1       -0.2652
     12 H          -2.6236    0.1617    0.0000 H       1  LIG1        0.0457
     13 H          -1.8194   -1.2597    0.9121 H       1  LIG1        0.0457
     14 H          -1.8162   -1.2253   -0.9370 H       1  LIG1        0.0457
     15 H          -1.9962    1.2096    0.0000 H       1  LIG1        0.1030
     16 H           2.7577    0.2463    0.0000 H       1  LIG1        0.1027
     17 H           1.5058    1.9432    0.0000 H       1  LIG1        0.1682
@<TRIPOS>BOND
     1     1     2    1
     2     2     3   ar
     3     3     4   ar
     4     4     5   ar
     5     5     6   ar
     6     6     7   ar
     7     7     8   ar
     8     8     9   ar
     9     5     9   ar
    10     6    10   ar
    11     2    10   ar
    12    10    11    2
    13     1    12    1
    14     1    13    1
    15     1    14    1
    16     3    15    1
    17     8    16    1
    18     9    17    1
