@<TRIPOS>MOLECULE
Cn1cnc(=O)c2ncnnc12
 17 18 0 0 0
SMALL
GASTEIGER
Energy = 0

@<TRIPOS>ATOM
      1 C           0.5969   -1.6812    0.0000 C.3     1  LIG1        0.0147
      2 N           0.5969   -0.8562    0.0000 N.ar    1  LIG1       -0.3165
      3 C           1.3114   -0.4437    0.0000 C.ar    1  LIG1        0.1012
      4 N           1.3114    0.3813    0.0000 N.ar    1  LIG1       -0.1974
      5 C           0.5969    0.7938    0.0000 C.ar    1  LIG1        0.3007
      6 O           0.5969    1.6188    0.0000 O.2     1  LIG1       -0.2634
      7 C          -0.1176    0.3813    0.0000 C.ar    1  LIG1        0.1756
      8 N          -0.8320    0.7938    0.0000 N.ar    1  LIG1       -0.2250
      9 C          -1.5465    0.3813    0.0000 C.ar    1  LIG1        0.1392
     10 N          -1.5465   -0.4437    0.0000 N.ar    1  LIG1       -0.1358
     11 N          -0.8320   -0.8562    0.0000 N.ar    1  LIG1       -0.1276
     12 C          -0.1176   -0.4437    0.0000 C.ar    1  LIG1        0.1876
     13 H           1.6715   -2.0617    0.0000 H       1  LIG1        0.0457
     14 H           0.0384   -2.0759   -0.9121 H       1  LIG1        0.0457
     15 H           0.0667   -2.0559    0.9370 H       1  LIG1        0.0457
     16 H           2.2653   -0.9945    0.0000 H       1  LIG1        0.1030
     17 H          -2.5004    0.9321    0.0000 H       1  LIG1        0.1066
@<TRIPOS>BOND
     1     1     2    1
     2     2     3   ar
     3     3     4   ar
     4     4     5   ar
     5     5     6    2
     6     5     7   ar
     7     7     8   ar
     8     8     9   ar
     9     9    10   ar
    10    10    11   ar
    11    11    12   ar
    12     2    12   ar
    13     7    12   ar
    14     1    13    1
    15     1    14    1
    16     1    15    1
    17     3    16    1
    18     9    17    1
