@<TRIPOS>MOLECULE
O=c1[nH]ccc2ccnn12
 15 16 0 0 0
SMALL
GASTEIGER
Energy = 0

@<TRIPOS>ATOM
      1 O           0.4830   -1.4242    0.0000 O.2     1  LIG1       -0.2447
      2 C           0.4830   -0.5992    0.0000 C.ar    1  LIG1        0.3474
      3 N           1.1975   -0.1867    0.0000 N.ar    1  LIG1       -0.3129
      4 C           1.1975    0.6383    0.0000 C.ar    1  LIG1        0.0084
      5 C           0.4830    1.0508    0.0000 C.ar    1  LIG1       -0.0199
      6 C          -0.2315    0.6383    0.0000 C.ar    1  LIG1        0.0735
      7 C          -1.0161    0.8933    0.0000 C.ar    1  LIG1       -0.0162
      8 C          -1.5010    0.2258    0.0000 C.ar    1  LIG1        0.0505
      9 N          -1.0161   -0.4416    0.0000 N.ar    1  LIG1       -0.1705
     10 N          -0.2315   -0.1867    0.0000 N.ar    1  LIG1       -0.1819
     11 H           2.1350   -0.7280    0.0000 H       1  LIG1        0.1699
     12 H           2.1514    1.1891    0.0000 H       1  LIG1        0.0809
     13 H           0.4830    2.1523    0.0000 H       1  LIG1        0.0653
     14 H          -1.3565    1.9409    0.0000 H       1  LIG1        0.0654
     15 H          -2.6025    0.2258    0.0000 H       1  LIG1        0.0848
@<TRIPOS>BOND
     1     1     2    2
     2     2     3   ar
     3     3     4   ar
     4     4     5   ar
     5     5     6   ar
     6     6     7   ar
     7     7     8   ar
     8     8     9   ar
     9     9    10   ar
    10     2    10   ar
    11     6    10   ar
    12     3    11    1
    13     4    12    1
    14     5    13    1
    15     7    14    1
    16     8    15    1
