@<TRIPOS>MOLECULE
O=c1nc2sccn2c(=O)[nH]1
 14 15 0 0 0
SMALL
GASTEIGER
Energy = 0

@<TRIPOS>ATOM
      1 O           1.8325   -0.8239    0.0000 O.2     1  LIG1       -0.2445
      2 C           1.1180   -0.4114    0.0000 C.ar    1  LIG1        0.3520
      3 N           1.1180    0.4136    0.0000 N.ar    1  LIG1       -0.2582
      4 C           0.4035    0.8261    0.0000 C.ar    1  LIG1        0.3365
      5 O           0.4035    1.6511    0.0000 O.2     1  LIG1       -0.2460
      6 N          -0.3109    0.4136    0.0000 N.ar    1  LIG1       -0.2470
      7 C          -1.0956    0.6686    0.0000 C.ar    1  LIG1        0.0231
      8 C          -1.5805    0.0011    0.0000 C.ar    1  LIG1       -0.0042
      9 S          -1.0956   -0.6663    0.0000 S.2     1  LIG1       -0.0574
     10 C          -0.3109   -0.4114    0.0000 C.ar    1  LIG1        0.1861
     11 N           0.4035   -0.8239    0.0000 N.ar    1  LIG1       -0.1682
     12 H           2.0555    0.9549    0.0000 H       1  LIG1        0.1750
     13 H          -1.4360    1.7162    0.0000 H       1  LIG1        0.0820
     14 H          -2.6820    0.0011    0.0000 H       1  LIG1        0.0709
@<TRIPOS>BOND
     1     1     2    2
     2     2     3   ar
     3     3     4   ar
     4     4     5    2
     5     4     6   ar
     6     6     7   ar
     7     7     8   ar
     8     8     9   ar
     9     9    10   ar
    10     6    10   ar
    11    10    11   ar
    12     2    11   ar
    13     3    12    1
    14     7    13    1
    15     8    14    1
