@<TRIPOS>MOLECULE
c1cc2ncsc2[nH]1
 12 13 0 0 0
SMALL
GASTEIGER
Energy = 0

@<TRIPOS>ATOM
      1 N           0.9156   -0.5560    0.0000 N.ar    1  LIG1       -0.3540
      2 C           1.4005    0.1114    0.0000 C.ar    1  LIG1        0.0047
      3 C           0.9156    0.7789    0.0000 C.ar    1  LIG1       -0.0178
      4 C           0.1310    0.5239    0.0000 C.ar    1  LIG1        0.0959
      5 C           0.1310   -0.3011    0.0000 C.ar    1  LIG1        0.1047
      6 S          -0.6536   -0.5560    0.0000 S.2     1  LIG1       -0.0578
      7 C          -1.1386    0.1114    0.0000 C.ar    1  LIG1        0.0673
      8 N          -0.6536    0.7789    0.0000 N.ar    1  LIG1       -0.2458
      9 H           1.2501   -1.5855    0.0000 H       1  LIG1        0.1659
     10 H           2.5020    0.1114    0.0000 H       1  LIG1        0.0808
     11 H           1.2560    1.8265    0.0000 H       1  LIG1        0.0654
     12 H          -2.2401    0.1114    0.0000 H       1  LIG1        0.0908
@<TRIPOS>BOND
     1     1     2   ar
     2     2     3   ar
     3     3     4   ar
     4     4     5   ar
     5     1     5   ar
     6     5     6   ar
     7     6     7   ar
     8     7     8   ar
     9     4     8   ar
    10     1     9    1
    11     2    10    1
    12     3    11    1
    13     7    12    1
