@<TRIPOS>MOLECULE
c1nc2ncncn2n1
 12 13 0 0 0
SMALL
GASTEIGER
Energy = 0

@<TRIPOS>ATOM
      1 C           1.2719    0.4125    0.0000 C.ar    1  LIG1        0.1215
      2 N           0.5575    0.8250    0.0000 N.ar    1  LIG1       -0.1991
      3 C          -0.1570    0.4125    0.0000 C.ar    1  LIG1        0.2556
      4 N          -0.9416    0.6674    0.0000 N.ar    1  LIG1       -0.1974
      5 C          -1.4265   -0.0000    0.0000 C.ar    1  LIG1        0.1406
      6 N          -0.9416   -0.6674    0.0000 N.ar    1  LIG1       -0.1509
      7 N          -0.1570   -0.4125    0.0000 N.ar    1  LIG1       -0.1856
      8 C           0.5575   -0.8250    0.0000 C.ar    1  LIG1        0.1229
      9 N           1.2719   -0.4125    0.0000 N.ar    1  LIG1       -0.2239
     10 H           2.2258    0.9632    0.0000 H       1  LIG1        0.1048
     11 H          -2.5280    0.0000    0.0000 H       1  LIG1        0.1066
     12 H           0.5575   -1.9265    0.0000 H       1  LIG1        0.1049
@<TRIPOS>BOND
     1     1     2   ar
     2     2     3   ar
     3     3     4   ar
     4     4     5   ar
     5     5     6   ar
     6     6     7   ar
     7     3     7   ar
     8     7     8   ar
     9     8     9   ar
    10     1     9   ar
    11     1    10    1
    12     5    11    1
    13     8    12    1
