@<TRIPOS>MOLECULE
Cn1ccc(=O)n2ncnc12
 17 18 0 0 0
SMALL
GASTEIGER
Energy = 0

@<TRIPOS>ATOM
      1 C           0.4667   -1.6900    0.0000 C.3     1  LIG1        0.0146
      2 N           0.4667   -0.8650    0.0000 N.ar    1  LIG1       -0.3195
      3 C           1.1812   -0.4525    0.0000 C.ar    1  LIG1        0.0127
      4 C           1.1812    0.3725    0.0000 C.ar    1  LIG1        0.0210
      5 C           0.4667    0.7850    0.0000 C.ar    1  LIG1        0.2757
      6 O           0.4667    1.6100    0.0000 O.2     1  LIG1       -0.2657
      7 N          -0.2477    0.3725    0.0000 N.ar    1  LIG1       -0.1610
      8 N          -1.0324    0.6275    0.0000 N.ar    1  LIG1       -0.1492
      9 C          -1.5173   -0.0400    0.0000 C.ar    1  LIG1        0.1406
     10 N          -1.0324   -0.7074    0.0000 N.ar    1  LIG1       -0.1988
     11 C          -0.2477   -0.4525    0.0000 C.ar    1  LIG1        0.2361
     12 H           1.5413   -2.0705    0.0000 H       1  LIG1        0.0457
     13 H          -0.0918   -2.0847   -0.9121 H       1  LIG1        0.0457
     14 H          -0.0635   -2.0647    0.9370 H       1  LIG1        0.0457
     15 H           2.1351   -1.0033    0.0000 H       1  LIG1        0.0811
     16 H           2.1351    0.9233    0.0000 H       1  LIG1        0.0687
     17 H          -2.6188   -0.0400    0.0000 H       1  LIG1        0.1066
@<TRIPOS>BOND
     1     1     2    1
     2     2     3   ar
     3     3     4   ar
     4     4     5   ar
     5     5     6    2
     6     5     7   ar
     7     7     8   ar
     8     8     9   ar
     9     9    10   ar
    10    10    11   ar
    11     2    11   ar
    12     7    11   ar
    13     1    12    1
    14     1    13    1
    15     1    14    1
    16     3    15    1
    17     4    16    1
    18     9    17    1
