@<TRIPOS>MOLECULE
O=c1ncc2cnsc2[nH]1
 13 14 0 0 0
SMALL
GASTEIGER
Energy = 0

@<TRIPOS>ATOM
      1 O          -1.8924    0.6424    0.0000 O.2     1  LIG1       -0.2447
      2 C          -1.1779    0.2299    0.0000 C.ar    1  LIG1        0.3467
      3 N          -0.4634    0.6424    0.0000 N.ar    1  LIG1       -0.2990
      4 C           0.2511    0.2299    0.0000 C.ar    1  LIG1        0.1100
      5 C           0.2511   -0.5951    0.0000 C.ar    1  LIG1        0.0436
      6 C           1.0357   -0.8500    0.0000 C.ar    1  LIG1        0.0473
      7 N           1.5206   -0.1826    0.0000 N.ar    1  LIG1       -0.2161
      8 S           1.0357    0.4849    0.0000 S.2     1  LIG1        0.0297
      9 C          -0.4634   -1.0076    0.0000 C.ar    1  LIG1        0.0441
     10 N          -1.1779   -0.5951    0.0000 N.ar    1  LIG1       -0.2008
     11 H          -0.4634    1.7249    0.0000 H       1  LIG1        0.1710
     12 H           1.3761   -1.8976    0.0000 H       1  LIG1        0.0844
     13 H          -0.4634   -2.1091    0.0000 H       1  LIG1        0.0838
@<TRIPOS>BOND
     1     1     2    2
     2     2     3   ar
     3     3     4   ar
     4     4     5   ar
     5     5     6   ar
     6     6     7   ar
     7     7     8   ar
     8     4     8   ar
     9     5     9   ar
    10     9    10   ar
    11     2    10   ar
    12     3    11    1
    13     6    12    1
    14     9    13    1
