@<TRIPOS>MOLECULE
O=c1[nH]nco1
 8 8 0 0 0
SMALL
GASTEIGER
Energy = 0

@<TRIPOS>ATOM
      1 O          -1.2341   -0.0060    0.0000 O.2     1  LIG1       -0.2213
      2 C          -0.4091   -0.0060    0.0000 C.ar    1  LIG1        0.4353
      3 N           0.0758   -0.6735    0.0000 N.ar    1  LIG1       -0.2087
      4 N           0.8604   -0.4185    0.0000 N.ar    1  LIG1       -0.1383
      5 C           0.8604    0.4065    0.0000 C.ar    1  LIG1        0.2056
      6 O           0.0758    0.6614    0.0000 O.2     1  LIG1       -0.3953
      7 H          -0.2587   -1.7030    0.0000 H       1  LIG1        0.1954
      8 H           1.7515    1.0540    0.0000 H       1  LIG1        0.1272
@<TRIPOS>BOND
     1     1     2    2
     2     2     3   ar
     3     3     4   ar
     4     4     5   ar
     5     5     6   ar
     6     2     6   ar
     7     3     7    1
     8     5     8    1
