@<TRIPOS>MOLECULE
Cn1c(=O)ccc2ccoc12
 18 19 0 0 0
SMALL
GASTEIGER
Energy = 0

@<TRIPOS>ATOM
      1 C          -0.3023   -1.3873    0.0000 C.3     1  LIG1        0.0180
      2 N          -0.3023   -0.5623    0.0000 N.ar    1  LIG1       -0.2819
      3 C          -1.0168   -0.1498    0.0000 C.ar    1  LIG1        0.2537
      4 O          -1.7313   -0.5623    0.0000 O.2     1  LIG1       -0.2676
      5 C          -1.0168    0.6752    0.0000 C.ar    1  LIG1        0.0037
      6 C          -0.3023    1.0877    0.0000 C.ar    1  LIG1       -0.0443
      7 C           0.4122    0.6752    0.0000 C.ar    1  LIG1        0.0383
      8 C           0.4122   -0.1498    0.0000 C.ar    1  LIG1        0.2104
      9 O           1.1968   -0.4047    0.0000 O.2     1  LIG1       -0.4465
     10 C           1.6817    0.2627    0.0000 C.ar    1  LIG1        0.0950
     11 C           1.1968    0.9301    0.0000 C.ar    1  LIG1       -0.0145
     12 H          -1.3769   -1.7678    0.0000 H       1  LIG1        0.0458
     13 H           0.2562   -1.7820    0.9121 H       1  LIG1        0.0458
     14 H           0.2279   -1.7620   -0.9370 H       1  LIG1        0.0458
     15 H          -1.9707    1.2260    0.0000 H       1  LIG1        0.0672
     16 H          -0.3023    2.1892    0.0000 H       1  LIG1        0.0627
     17 H           2.7832    0.2627    0.0000 H       1  LIG1        0.1030
     18 H           1.5372    1.9777    0.0000 H       1  LIG1        0.0656
@<TRIPOS>BOND
     1     1     2    1
     2     2     3   ar
     3     3     4    2
     4     3     5   ar
     5     5     6   ar
     6     6     7   ar
     7     7     8   ar
     8     2     8   ar
     9     8     9   ar
    10     9    10   ar
    11    10    11   ar
    12     7    11   ar
    13     1    12    1
    14     1    13    1
    15     1    14    1
    16     5    15    1
    17     6    16    1
    18    10    17    1
    19    11    18    1
