@<TRIPOS>MOLECULE
O=c1[nH]cnc2scnc12
 13 14 0 0 0
SMALL
GASTEIGER
Energy = 0

@<TRIPOS>ATOM
      1 O          -0.6092   -1.5599    0.0000 O.2     1  LIG1       -0.2655
      2 C          -0.6092   -0.7349    0.0000 C.ar    1  LIG1        0.2779
      3 N          -1.3237   -0.3224    0.0000 N.ar    1  LIG1       -0.3116
      4 C          -1.3237    0.5026    0.0000 C.ar    1  LIG1        0.0973
      5 N          -0.6092    0.9151    0.0000 N.ar    1  LIG1       -0.2284
      6 C           0.1052    0.5026    0.0000 C.ar    1  LIG1        0.1347
      7 C           0.1052   -0.3224    0.0000 C.ar    1  LIG1        0.1606
      8 N           0.8899   -0.5774    0.0000 N.ar    1  LIG1       -0.2404
      9 C           1.3748    0.0901    0.0000 C.ar    1  LIG1        0.0676
     10 S           0.8899    0.7575    0.0000 S.2     1  LIG1       -0.0556
     11 H          -2.2612   -0.8637    0.0000 H       1  LIG1        0.1698
     12 H          -2.2776    1.0534    0.0000 H       1  LIG1        0.1028
     13 H           2.4763    0.0901    0.0000 H       1  LIG1        0.0908
@<TRIPOS>BOND
     1     1     2    2
     2     2     3   ar
     3     3     4   ar
     4     4     5   ar
     5     5     6   ar
     6     6     7   ar
     7     2     7   ar
     8     7     8   ar
     9     8     9   ar
    10     9    10   ar
    11     6    10   ar
    12     3    11    1
    13     4    12    1
    14     9    13    1
