@<TRIPOS>MOLECULE
O=c1[nH]ccc2cn[nH]c12
 15 16 0 0 0
SMALL
GASTEIGER
Energy = 0

@<TRIPOS>ATOM
      1 O          -0.5025   -1.4305    0.0000 O.2     1  LIG1       -0.2656
      2 C          -0.5025   -0.6055    0.0000 C.ar    1  LIG1        0.2742
      3 N          -1.2170   -0.1930    0.0000 N.ar    1  LIG1       -0.3273
      4 C          -1.2170    0.6320    0.0000 C.ar    1  LIG1        0.0057
      5 C          -0.5025    1.0445    0.0000 C.ar    1  LIG1       -0.0348
      6 C           0.2120    0.6320    0.0000 C.ar    1  LIG1        0.0261
      7 C           0.2120   -0.1930    0.0000 C.ar    1  LIG1        0.1299
      8 N           0.9966   -0.4479    0.0000 N.ar    1  LIG1       -0.2718
      9 N           1.4815    0.2195    0.0000 N.ar    1  LIG1       -0.1810
     10 C           0.9966    0.8869    0.0000 C.ar    1  LIG1        0.0571
     11 H          -2.1545   -0.7343    0.0000 H       1  LIG1        0.1684
     12 H          -2.1709    1.1828    0.0000 H       1  LIG1        0.0808
     13 H          -0.5025    2.1460    0.0000 H       1  LIG1        0.0639
     14 H           1.3311   -1.4774    0.0000 H       1  LIG1        0.1891
     15 H           1.3370    1.9345    0.0000 H       1  LIG1        0.0854
@<TRIPOS>BOND
     1     1     2    2
     2     2     3   ar
     3     3     4   ar
     4     4     5   ar
     5     5     6   ar
     6     6     7   ar
     7     2     7   ar
     8     7     8   ar
     9     8     9   ar
    10     9    10   ar
    11     6    10   ar
    12     3    11    1
    13     4    12    1
    14     5    13    1
    15     8    14    1
    16    10    15    1
