@<TRIPOS>MOLECULE
Cn1cc2[nH]cnc(=O)c2c1
 18 19 0 0 0
SMALL
GASTEIGER
Energy = 0

@<TRIPOS>ATOM
      1 C           2.1326    0.1800    0.0000 C.3     1  LIG1        0.0114
      2 N           1.3076    0.1800    0.0000 N.ar    1  LIG1       -0.3535
      3 C           0.8227    0.8474    0.0000 C.ar    1  LIG1        0.0284
      4 C           0.0381    0.5925    0.0000 C.ar    1  LIG1        0.0705
      5 N          -0.6764    1.0050    0.0000 N.ar    1  LIG1       -0.3442
      6 C          -1.3909    0.5925    0.0000 C.ar    1  LIG1        0.0977
      7 N          -1.3909   -0.2325    0.0000 N.ar    1  LIG1       -0.1990
      8 C          -0.6764   -0.6450    0.0000 C.ar    1  LIG1        0.2821
      9 O          -0.6764   -1.4700    0.0000 O.2     1  LIG1       -0.2651
     10 C           0.0381   -0.2325    0.0000 C.ar    1  LIG1        0.0820
     11 C           0.8227   -0.4874    0.0000 C.ar    1  LIG1        0.0187
     12 H           2.5131    1.2546    0.0000 H       1  LIG1        0.0455
     13 H           2.5273   -0.3785   -0.9121 H       1  LIG1        0.0455
     14 H           2.5073   -0.3502    0.9370 H       1  LIG1        0.0455
     15 H           1.1631    1.8950    0.0000 H       1  LIG1        0.0830
     16 H          -0.6764    2.0875    0.0000 H       1  LIG1        0.1668
     17 H          -2.3448    1.1433    0.0000 H       1  LIG1        0.1028
     18 H           1.1631   -1.5350    0.0000 H       1  LIG1        0.0817
@<TRIPOS>BOND
     1     1     2    1
     2     2     3   ar
     3     3     4   ar
     4     4     5   ar
     5     5     6   ar
     6     6     7   ar
     7     7     8   ar
     8     8     9    2
     9     8    10   ar
    10     4    10   ar
    11    10    11   ar
    12     2    11   ar
    13     1    12    1
    14     1    13    1
    15     1    14    1
    16     3    15    1
    17     5    16    1
    18     6    17    1
    19    11    18    1
