@<TRIPOS>MOLECULE
O=c1cnn2ccccc2n1
 16 17 0 0 0
SMALL
GASTEIGER
Energy = 0

@<TRIPOS>ATOM
      1 O           1.8820   -0.7379    0.0000 O.2     1  LIG1       -0.2641
      2 C           1.1675   -0.3254    0.0000 C.ar    1  LIG1        0.2920
      3 C           1.1675    0.4996    0.0000 C.ar    1  LIG1        0.1145
      4 N           0.4531    0.9121    0.0000 N.ar    1  LIG1       -0.1680
      5 N          -0.2614    0.4996    0.0000 N.ar    1  LIG1       -0.2216
      6 C          -0.9759    0.9121    0.0000 C.ar    1  LIG1        0.0314
      7 C          -1.6904    0.4996    0.0000 C.ar    1  LIG1       -0.0434
      8 C          -1.6904   -0.3254    0.0000 C.ar    1  LIG1       -0.0568
      9 C          -0.9759   -0.7379    0.0000 C.ar    1  LIG1       -0.0173
     10 C          -0.2614   -0.3254    0.0000 C.ar    1  LIG1        0.1579
     11 N           0.4531   -0.7379    0.0000 N.ar    1  LIG1       -0.1886
     12 H           2.1214    1.0503    0.0000 H       1  LIG1        0.0904
     13 H          -0.9759    2.0136    0.0000 H       1  LIG1        0.0831
     14 H          -2.6443    1.0504    0.0000 H       1  LIG1        0.0633
     15 H          -2.6443   -0.8762    0.0000 H       1  LIG1        0.0619
     16 H          -0.9759   -1.8394    0.0000 H       1  LIG1        0.0655
@<TRIPOS>BOND
     1     1     2    2
     2     2     3   ar
     3     3     4   ar
     4     4     5   ar
     5     5     6   ar
     6     6     7   ar
     7     7     8   ar
     8     8     9   ar
     9     9    10   ar
    10     5    10   ar
    11    10    11   ar
    12     2    11   ar
    13     3    12    1
    14     6    13    1
    15     7    14    1
    16     8    15    1
    17     9    16    1
