@<TRIPOS>MOLECULE
O=c1ccc2c[nH]nc2[nH]1
 15 16 0 0 0
SMALL
GASTEIGER
Energy = 0

@<TRIPOS>ATOM
      1 O           1.7666    0.7006    0.0000 O.2     1  LIG1       -0.2679
      2 C           1.0522    0.2881    0.0000 C.ar    1  LIG1        0.2503
      3 N           0.3377    0.7006    0.0000 N.ar    1  LIG1       -0.3056
      4 C          -0.3768    0.2881    0.0000 C.ar    1  LIG1        0.1622
      5 N          -1.1614    0.5431    0.0000 N.ar    1  LIG1       -0.1556
      6 N          -1.6463   -0.1244    0.0000 N.ar    1  LIG1       -0.2822
      7 C          -1.1614   -0.7918    0.0000 C.ar    1  LIG1        0.0316
      8 C          -0.3768   -0.5369    0.0000 C.ar    1  LIG1        0.0366
      9 C           0.3377   -0.9494    0.0000 C.ar    1  LIG1       -0.0445
     10 C           1.0522   -0.5369    0.0000 C.ar    1  LIG1        0.0035
     11 H           0.3377    1.7831    0.0000 H       1  LIG1        0.1704
     12 H          -2.7288   -0.1244    0.0000 H       1  LIG1        0.1883
     13 H          -1.5018   -1.8394    0.0000 H       1  LIG1        0.0830
     14 H           0.3377   -2.0509    0.0000 H       1  LIG1        0.0627
     15 H           2.0061   -1.0877    0.0000 H       1  LIG1        0.0672
@<TRIPOS>BOND
     1     1     2    2
     2     2     3   ar
     3     3     4   ar
     4     4     5   ar
     5     5     6   ar
     6     6     7   ar
     7     7     8   ar
     8     4     8   ar
     9     8     9   ar
    10     9    10   ar
    11     2    10   ar
    12     3    11    1
    13     6    12    1
    14     7    13    1
    15     9    14    1
    16    10    15    1
