@<TRIPOS>MOLECULE
c1nc2c[nH]cc2s1
 12 13 0 0 0
SMALL
GASTEIGER
Energy = 0

@<TRIPOS>ATOM
      1 N           1.3925   -0.1003    0.0000 N.ar    1  LIG1       -0.3642
      2 C           0.9076    0.5671    0.0000 C.ar    1  LIG1        0.0177
      3 C           0.1229    0.3122    0.0000 C.ar    1  LIG1        0.0562
      4 S          -0.6617    0.5671    0.0000 S.2     1  LIG1       -0.0739
      5 C          -1.1466   -0.1003    0.0000 C.ar    1  LIG1        0.0660
      6 N          -0.6617   -0.7678    0.0000 N.ar    1  LIG1       -0.2459
      7 C           0.1229   -0.5128    0.0000 C.ar    1  LIG1        0.0954
      8 C           0.9076   -0.7678    0.0000 C.ar    1  LIG1        0.0285
      9 H           2.4750   -0.1003    0.0000 H       1  LIG1        0.1649
     10 H           1.2480    1.6147    0.0000 H       1  LIG1        0.0819
     11 H          -2.2481   -0.1003    0.0000 H       1  LIG1        0.0907
     12 H           1.2480   -1.8154    0.0000 H       1  LIG1        0.0829
@<TRIPOS>BOND
     1     1     2   ar
     2     2     3   ar
     3     3     4   ar
     4     4     5   ar
     5     5     6   ar
     6     6     7   ar
     7     3     7   ar
     8     7     8   ar
     9     1     8   ar
    10     1     9    1
    11     2    10    1
    12     5    11    1
    13     8    12    1
