@<TRIPOS>MOLECULE
Cn1cnc(=O)cn1
 13 13 0 0 0
SMALL
GASTEIGER
Energy = 0

@<TRIPOS>ATOM
      1 C          -0.0000   -1.6965    0.0000 C.3     1  LIG1        0.0319
      2 N          -0.0000   -0.8715    0.0000 N.ar    1  LIG1       -0.2562
      3 C           0.7145   -0.4590    0.0000 C.ar    1  LIG1        0.1161
      4 N           0.7145    0.3660    0.0000 N.ar    1  LIG1       -0.1967
      5 C           0.0000    0.7785    0.0000 C.ar    1  LIG1        0.2914
      6 O           0.0000    1.6035    0.0000 O.2     1  LIG1       -0.2641
      7 C          -0.7145    0.3660    0.0000 C.ar    1  LIG1        0.1141
      8 N          -0.7145   -0.4590    0.0000 N.ar    1  LIG1       -0.1731
      9 H           1.0746   -2.0770    0.0000 H       1  LIG1        0.0473
     10 H          -0.5585   -2.0912   -0.9121 H       1  LIG1        0.0473
     11 H          -0.5302   -2.0712    0.9370 H       1  LIG1        0.0473
     12 H           1.6684   -1.0098    0.0000 H       1  LIG1        0.1044
     13 H          -1.6684    0.9168    0.0000 H       1  LIG1        0.0904
@<TRIPOS>BOND
     1     1     2    1
     2     2     3   ar
     3     3     4   ar
     4     4     5   ar
     5     5     6    2
     6     5     7   ar
     7     7     8   ar
     8     2     8   ar
     9     1     9    1
    10     1    10    1
    11     1    11    1
    12     3    12    1
    13     7    13    1
