@<TRIPOS>MOLECULE
Cn1ncc(=O)c2cccnc12
 19 20 0 0 0
SMALL
GASTEIGER
Energy = 0

@<TRIPOS>ATOM
      1 C           0.5661   -1.6660    0.0000 C.3     1  LIG1        0.0324
      2 N           0.5661   -0.8410    0.0000 N.ar    1  LIG1       -0.2494
      3 N           1.2806   -0.4285    0.0000 N.ar    1  LIG1       -0.1743
      4 C           1.2806    0.3965    0.0000 C.ar    1  LIG1        0.0953
      5 C           0.5661    0.8090    0.0000 C.ar    1  LIG1        0.2092
      6 O           0.5661    1.6340    0.0000 O.2     1  LIG1       -0.2855
      7 C          -0.1484    0.3965    0.0000 C.ar    1  LIG1        0.0670
      8 C          -0.8628    0.8090    0.0000 C.ar    1  LIG1       -0.0459
      9 C          -1.5773    0.3965    0.0000 C.ar    1  LIG1       -0.0428
     10 C          -1.5773   -0.4285    0.0000 C.ar    1  LIG1        0.0300
     11 N          -0.8628   -0.8410    0.0000 N.ar    1  LIG1       -0.2359
     12 C          -0.1484   -0.4285    0.0000 C.ar    1  LIG1        0.1602
     13 H           1.6407   -2.0465    0.0000 H       1  LIG1        0.0473
     14 H           0.0076   -2.0607   -0.9121 H       1  LIG1        0.0473
     15 H           0.0359   -2.0407    0.9370 H       1  LIG1        0.0473
     16 H           2.2345    0.9473    0.0000 H       1  LIG1        0.0887
     17 H          -0.8628    1.9105    0.0000 H       1  LIG1        0.0626
     18 H          -2.5312    0.9473    0.0000 H       1  LIG1        0.0633
     19 H          -2.5312   -0.9793    0.0000 H       1  LIG1        0.0830
@<TRIPOS>BOND
     1     1     2    1
     2     2     3   ar
     3     3     4   ar
     4     4     5   ar
     5     5     6    2
     6     5     7   ar
     7     7     8   ar
     8     8     9   ar
     9     9    10   ar
    10    10    11   ar
    11    11    12   ar
    12     2    12   ar
    13     7    12   ar
    14     1    13    1
    15     1    14    1
    16     1    15    1
    17     4    16    1
    18     8    17    1
    19     9    18    1
    20    10    19    1
