@<TRIPOS>MOLECULE
O=c1cc[nH]c2sncc12
 14 15 0 0 0
SMALL
GASTEIGER
Energy = 0

@<TRIPOS>ATOM
      1 O          -0.6336   -1.5733    0.0000 O.2     1  LIG1       -0.2871
      2 C          -0.6336   -0.7483    0.0000 C.ar    1  LIG1        0.1914
      3 C          -1.3481   -0.3358    0.0000 C.ar    1  LIG1        0.0017
      4 C          -1.3481    0.4892    0.0000 C.ar    1  LIG1        0.0063
      5 N          -0.6336    0.9017    0.0000 N.ar    1  LIG1       -0.3539
      6 C           0.0809    0.4892    0.0000 C.ar    1  LIG1        0.1084
      7 C           0.0809   -0.3358    0.0000 C.ar    1  LIG1        0.0719
      8 C           0.8655   -0.5907    0.0000 C.ar    1  LIG1        0.0495
      9 N           1.3504    0.0767    0.0000 N.ar    1  LIG1       -0.2160
     10 S           0.8655    0.7442    0.0000 S.2     1  LIG1        0.0297
     11 H          -2.3020   -0.8866    0.0000 H       1  LIG1        0.0670
     12 H          -2.3020    1.0400    0.0000 H       1  LIG1        0.0808
     13 H          -0.6336    1.9842    0.0000 H       1  LIG1        0.1659
     14 H           1.2059   -1.6383    0.0000 H       1  LIG1        0.0844
@<TRIPOS>BOND
     1     1     2    2
     2     2     3   ar
     3     3     4   ar
     4     4     5   ar
     5     5     6   ar
     6     6     7   ar
     7     2     7   ar
     8     7     8   ar
     9     8     9   ar
    10     9    10   ar
    11     6    10   ar
    12     3    11    1
    13     4    12    1
    14     5    13    1
    15     8    14    1
