@<TRIPOS>MOLECULE
Cn1c(=O)ncn2ncnc12
 16 17 0 0 0
SMALL
GASTEIGER
Energy = 0

@<TRIPOS>ATOM
      1 C           0.2941   -1.4240    0.0000 C.3     1  LIG1        0.0195
      2 N           0.2941   -0.5990    0.0000 N.ar    1  LIG1       -0.2641
      3 C           1.0086   -0.1865    0.0000 C.ar    1  LIG1        0.3522
      4 O           1.7230   -0.5990    0.0000 O.2     1  LIG1       -0.2444
      5 N           1.0086    0.6385    0.0000 N.ar    1  LIG1       -0.1813
      6 C           0.2941    1.0510    0.0000 C.ar    1  LIG1        0.1266
      7 N          -0.4204    0.6385    0.0000 N.ar    1  LIG1       -0.1868
      8 N          -1.2050    0.8934    0.0000 N.ar    1  LIG1       -0.1510
      9 C          -1.6899    0.2260    0.0000 C.ar    1  LIG1        0.1405
     10 N          -1.2050   -0.4414    0.0000 N.ar    1  LIG1       -0.1987
     11 C          -0.4204   -0.1865    0.0000 C.ar    1  LIG1        0.2382
     12 H           1.3687   -1.8045    0.0000 H       1  LIG1        0.0458
     13 H          -0.2644   -1.8187   -0.9121 H       1  LIG1        0.0458
     14 H          -0.2361   -1.7987    0.9370 H       1  LIG1        0.0458
     15 H           0.2941    2.1525    0.0000 H       1  LIG1        0.1050
     16 H          -2.7914    0.2260    0.0000 H       1  LIG1        0.1066
@<TRIPOS>BOND
     1     1     2    1
     2     2     3   ar
     3     3     4    2
     4     3     5   ar
     5     5     6   ar
     6     6     7   ar
     7     7     8   ar
     8     8     9   ar
     9     9    10   ar
    10    10    11   ar
    11     2    11   ar
    12     7    11   ar
    13     1    12    1
    14     1    13    1
    15     1    14    1
    16     6    15    1
    17     9    16    1
