@<TRIPOS>MOLECULE
c1cc2ccncc2o1
 14 15 0 0 0
SMALL
GASTEIGER
Energy = 0

@<TRIPOS>ATOM
      1 O           0.9346   -0.6369    0.0000 O.2     1  LIG1       -0.4614
      2 C           1.4196    0.0306    0.0000 C.ar    1  LIG1        0.0932
      3 C           0.9346    0.6980    0.0000 C.ar    1  LIG1       -0.0160
      4 C           0.1500    0.4431    0.0000 C.ar    1  LIG1        0.0231
      5 C          -0.5644    0.8556    0.0000 C.ar    1  LIG1       -0.0328
      6 C          -1.2789    0.4431    0.0000 C.ar    1  LIG1        0.0284
      7 N          -1.2789   -0.3819    0.0000 N.ar    1  LIG1       -0.2596
      8 C          -0.5644   -0.7944    0.0000 C.ar    1  LIG1        0.0703
      9 C           0.1500   -0.3819    0.0000 C.ar    1  LIG1        0.1528
     10 H           2.5211    0.0306    0.0000 H       1  LIG1        0.1030
     11 H           1.2749    1.7456    0.0000 H       1  LIG1        0.0655
     12 H          -0.5644    1.9571    0.0000 H       1  LIG1        0.0640
     13 H          -2.2328    0.9939    0.0000 H       1  LIG1        0.0830
     14 H          -0.5644   -1.8959    0.0000 H       1  LIG1        0.0867
@<TRIPOS>BOND
     1     1     2   ar
     2     2     3   ar
     3     3     4   ar
     4     4     5   ar
     5     5     6   ar
     6     6     7   ar
     7     7     8   ar
     8     8     9   ar
     9     1     9   ar
    10     4     9   ar
    11     2    10    1
    12     3    11    1
    13     5    12    1
    14     6    13    1
    15     8    14    1
