@<TRIPOS>MOLECULE
Cn1cc2cnc(=O)[nH]c2n1
 17 18 0 0 0
SMALL
GASTEIGER
Energy = 0

@<TRIPOS>ATOM
      1 C           2.2799    0.1066    0.0000 C.3     1  LIG1        0.0303
      2 N           1.4549    0.1066    0.0000 N.ar    1  LIG1       -0.2719
      3 C           0.9700    0.7740    0.0000 C.ar    1  LIG1        0.0359
      4 C           0.1853    0.5191    0.0000 C.ar    1  LIG1        0.0549
      5 C          -0.5291    0.9316    0.0000 C.ar    1  LIG1        0.0451
      6 N          -1.2436    0.5191    0.0000 N.ar    1  LIG1       -0.2008
      7 C          -1.2436   -0.3059    0.0000 C.ar    1  LIG1        0.3474
      8 O          -1.9581   -0.7184    0.0000 O.2     1  LIG1       -0.2447
      9 N          -0.5291   -0.7184    0.0000 N.ar    1  LIG1       -0.2892
     10 C           0.1853   -0.3059    0.0000 C.ar    1  LIG1        0.1651
     11 N           0.9700   -0.5609    0.0000 N.ar    1  LIG1       -0.1531
     12 H           2.6604    1.1812    0.0000 H       1  LIG1        0.0473
     13 H           2.6746   -0.4519   -0.9121 H       1  LIG1        0.0473
     14 H           2.6546   -0.4236    0.9370 H       1  LIG1        0.0473
     15 H           1.3104    1.8216    0.0000 H       1  LIG1        0.0833
     16 H          -0.5291    2.0331    0.0000 H       1  LIG1        0.0839
     17 H          -0.5291   -1.8009    0.0000 H       1  LIG1        0.1720
@<TRIPOS>BOND
     1     1     2    1
     2     2     3   ar
     3     3     4   ar
     4     4     5   ar
     5     5     6   ar
     6     6     7   ar
     7     7     8    2
     8     7     9   ar
     9     9    10   ar
    10     4    10   ar
    11    10    11   ar
    12     2    11   ar
    13     1    12    1
    14     1    13    1
    15     1    14    1
    16     3    15    1
    17     5    16    1
    18     9    17    1
