@<TRIPOS>MOLECULE
Cn1nc2cccnn2c1=O
 17 18 0 0 0
SMALL
GASTEIGER
Energy = 0

@<TRIPOS>ATOM
      1 C           1.9067    0.1691    0.0000 C.3     1  LIG1        0.0355
      2 N           1.0817    0.1691    0.0000 N.ar    1  LIG1       -0.2142
      3 N           0.5967    0.8366    0.0000 N.ar    1  LIG1       -0.1475
      4 C          -0.1879    0.5816    0.0000 C.ar    1  LIG1        0.1793
      5 C          -0.9023    0.9941    0.0000 C.ar    1  LIG1       -0.0141
      6 C          -1.6168    0.5816    0.0000 C.ar    1  LIG1       -0.0384
      7 C          -1.6168   -0.2434    0.0000 C.ar    1  LIG1        0.0487
      8 N          -0.9023   -0.6559    0.0000 N.ar    1  LIG1       -0.1691
      9 N          -0.1879   -0.2434    0.0000 N.ar    1  LIG1       -0.1606
     10 C           0.5967   -0.4983    0.0000 C.ar    1  LIG1        0.3673
     11 O           0.8517   -1.2829    0.0000 O.2     1  LIG1       -0.2429
     12 H           2.2872    1.2437    0.0000 H       1  LIG1        0.0474
     13 H           2.3014   -0.3894   -0.9121 H       1  LIG1        0.0474
     14 H           2.2814   -0.3611    0.9370 H       1  LIG1        0.0474
     15 H          -0.9023    2.0956    0.0000 H       1  LIG1        0.0656
     16 H          -2.5707    1.1324    0.0000 H       1  LIG1        0.0634
     17 H          -2.5707   -0.7942    0.0000 H       1  LIG1        0.0847
@<TRIPOS>BOND
     1     1     2    1
     2     2     3   ar
     3     3     4   ar
     4     4     5   ar
     5     5     6   ar
     6     6     7   ar
     7     7     8   ar
     8     8     9   ar
     9     4     9   ar
    10     9    10   ar
    11     2    10   ar
    12    10    11    2
    13     1    12    1
    14     1    13    1
    15     1    14    1
    16     5    15    1
    17     6    16    1
    18     7    17    1
