@<TRIPOS>MOLECULE
O=c1ncn2ncsc2n1
 12 13 0 0 0
SMALL
GASTEIGER
Energy = 0

@<TRIPOS>ATOM
      1 O           1.8893   -0.6590    0.0000 O.2     1  LIG1       -0.2425
      2 C           1.1748   -0.2465    0.0000 C.ar    1  LIG1        0.3713
      3 N           1.1748    0.5785    0.0000 N.ar    1  LIG1       -0.1799
      4 C           0.4603    0.9910    0.0000 C.ar    1  LIG1        0.1257
      5 N          -0.2541    0.5785    0.0000 N.ar    1  LIG1       -0.1966
      6 N          -1.0387    0.8334    0.0000 N.ar    1  LIG1       -0.1644
      7 C          -1.5237    0.1660    0.0000 C.ar    1  LIG1        0.0889
      8 S          -1.0387   -0.5014    0.0000 S.2     1  LIG1       -0.0361
      9 C          -0.2541   -0.2465    0.0000 C.ar    1  LIG1        0.2012
     10 N           0.4603   -0.6590    0.0000 N.ar    1  LIG1       -0.1653
     11 H           0.4603    2.0925    0.0000 H       1  LIG1        0.1050
     12 H          -2.6252    0.1660    0.0000 H       1  LIG1        0.0926
@<TRIPOS>BOND
     1     1     2    2
     2     2     3   ar
     3     3     4   ar
     4     4     5   ar
     5     5     6   ar
     6     6     7   ar
     7     7     8   ar
     8     8     9   ar
     9     5     9   ar
    10     9    10   ar
    11     2    10   ar
    12     4    11    1
    13     7    12    1
