@<TRIPOS>MOLECULE
Cn1ccc(=O)n2nccc12
 18 19 0 0 0
SMALL
GASTEIGER
Energy = 0

@<TRIPOS>ATOM
      1 C           0.4522   -1.6999    0.0000 C.3     1  LIG1        0.0132
      2 N           0.4522   -0.8749    0.0000 N.ar    1  LIG1       -0.3351
      3 C           1.1667   -0.4624    0.0000 C.ar    1  LIG1        0.0113
      4 C           1.1667    0.3626    0.0000 C.ar    1  LIG1        0.0209
      5 C           0.4522    0.7751    0.0000 C.ar    1  LIG1        0.2745
      6 O           0.4522    1.6001    0.0000 O.2     1  LIG1       -0.2657
      7 N          -0.2623    0.3626    0.0000 N.ar    1  LIG1       -0.1800
      8 N          -1.0469    0.6175    0.0000 N.ar    1  LIG1       -0.1703
      9 C          -1.5318   -0.0499    0.0000 C.ar    1  LIG1        0.0520
     10 C          -1.0469   -0.7173    0.0000 C.ar    1  LIG1        0.0008
     11 C          -0.2623   -0.4624    0.0000 C.ar    1  LIG1        0.1400
     12 H           1.5268   -2.0804    0.0000 H       1  LIG1        0.0456
     13 H          -0.1063   -2.0946   -0.9121 H       1  LIG1        0.0456
     14 H          -0.0780   -2.0746    0.9370 H       1  LIG1        0.0456
     15 H           2.1206   -1.0132    0.0000 H       1  LIG1        0.0811
     16 H           2.1206    0.9134    0.0000 H       1  LIG1        0.0687
     17 H          -2.6333   -0.0499    0.0000 H       1  LIG1        0.0848
     18 H          -1.3873   -1.7649    0.0000 H       1  LIG1        0.0670
@<TRIPOS>BOND
     1     1     2    1
     2     2     3   ar
     3     3     4   ar
     4     4     5   ar
     5     5     6    2
     6     5     7   ar
     7     7     8   ar
     8     8     9   ar
     9     9    10   ar
    10    10    11   ar
    11     2    11   ar
    12     7    11   ar
    13     1    12    1
    14     1    13    1
    15     1    14    1
    16     3    15    1
    17     4    16    1
    18     9    17    1
    19    10    18    1
