@<TRIPOS>MOLECULE
Cn1ccc2nncnc12
 16 17 0 0 0
SMALL
GASTEIGER
Energy = 0

@<TRIPOS>ATOM
      1 C           1.1102   -1.3119    0.0000 C.3     1  LIG1        0.0133
      2 N           0.8552   -0.5273    0.0000 N.ar    1  LIG1       -0.3336
      3 C           1.3402    0.1401    0.0000 C.ar    1  LIG1        0.0083
      4 C           0.8552    0.8076    0.0000 C.ar    1  LIG1       -0.0147
      5 C           0.0706    0.5526    0.0000 C.ar    1  LIG1        0.1299
      6 N          -0.6439    0.9651    0.0000 N.ar    1  LIG1       -0.1447
      7 N          -1.3583    0.5526    0.0000 N.ar    1  LIG1       -0.1371
      8 C          -1.3583   -0.2724    0.0000 C.ar    1  LIG1        0.1406
      9 N          -0.6439   -0.6849    0.0000 N.ar    1  LIG1       -0.2143
     10 C           0.0706   -0.2724    0.0000 C.ar    1  LIG1        0.1624
     11 H           2.2498   -1.3417    0.0000 H       1  LIG1        0.0456
     12 H           0.7011   -1.8599   -0.9121 H       1  LIG1        0.0456
     13 H           0.7217   -1.8322    0.9370 H       1  LIG1        0.0456
     14 H           2.4417    0.1401    0.0000 H       1  LIG1        0.0810
     15 H           1.1955    1.8552    0.0000 H       1  LIG1        0.0655
     16 H          -2.3122   -0.8231    0.0000 H       1  LIG1        0.1066
@<TRIPOS>BOND
     1     1     2    1
     2     2     3   ar
     3     3     4   ar
     4     4     5   ar
     5     5     6   ar
     6     6     7   ar
     7     7     8   ar
     8     8     9   ar
     9     9    10   ar
    10     2    10   ar
    11     5    10   ar
    12     1    11    1
    13     1    12    1
    14     1    13    1
    15     3    14    1
    16     4    15    1
    17     8    16    1
