@<TRIPOS>MOLECULE
Cn1[nH]cc2ncc(=O)cc12
 18 19 0 0 0
SMALL
GASTEIGER
Energy = 0

@<TRIPOS>ATOM
      1 C           1.2966   -1.2386    0.0000 C.3     1  LIG1        0.0288
      2 N           1.0417   -0.4540    0.0000 N.ar    1  LIG1       -0.2876
      3 N           1.5266    0.2134    0.0000 N.ar    1  LIG1       -0.3025
      4 C           1.0417    0.8809    0.0000 C.ar    1  LIG1        0.0464
      5 C           0.2570    0.6259    0.0000 C.ar    1  LIG1        0.1062
      6 N          -0.4574    1.0384    0.0000 N.ar    1  LIG1       -0.2482
      7 C          -1.1719    0.6259    0.0000 C.ar    1  LIG1        0.0751
      8 C          -1.1719   -0.1991    0.0000 C.ar    1  LIG1        0.1990
      9 O          -1.8864   -0.6116    0.0000 O.2     1  LIG1       -0.2862
     10 C          -0.4574   -0.6116    0.0000 C.ar    1  LIG1        0.0137
     11 C           0.2570   -0.1991    0.0000 C.ar    1  LIG1        0.0883
     12 H           2.4362   -1.2685    0.0000 H       1  LIG1        0.0472
     13 H           0.8874   -1.7865   -0.9121 H       1  LIG1        0.0472
     14 H           0.9081   -1.7588    0.9370 H       1  LIG1        0.0472
     15 H           2.6091    0.2134    0.0000 H       1  LIG1        0.1863
     16 H           1.3821    1.9285    0.0000 H       1  LIG1        0.0845
     17 H          -2.1258    1.1767    0.0000 H       1  LIG1        0.0869
     18 H          -0.4574   -1.7131    0.0000 H       1  LIG1        0.0678
@<TRIPOS>BOND
     1     1     2    1
     2     2     3   ar
     3     3     4   ar
     4     4     5   ar
     5     5     6   ar
     6     6     7   ar
     7     7     8   ar
     8     8     9    2
     9     8    10   ar
    10    10    11   ar
    11     2    11   ar
    12     5    11   ar
    13     1    12    1
    14     1    13    1
    15     1    14    1
    16     3    15    1
    17     4    16    1
    18     7    17    1
    19    10    18    1
