@<TRIPOS>MOLECULE
O=c1ccn2sccc2c1
 15 16 0 0 0
SMALL
GASTEIGER
Energy = 0

@<TRIPOS>ATOM
      1 O           1.8974   -0.8319    0.0000 O.2     1  LIG1       -0.2878
      2 C           1.1830   -0.4194    0.0000 C.ar    1  LIG1        0.1824
      3 C           1.1830    0.4056    0.0000 C.ar    1  LIG1        0.0022
      4 C           0.4685    0.8181    0.0000 C.ar    1  LIG1        0.0210
      5 N          -0.2460    0.4056    0.0000 N.ar    1  LIG1       -0.2871
      6 S          -1.0306    0.6605    0.0000 S.2     1  LIG1       -0.0148
      7 C          -1.5155   -0.0069    0.0000 C.ar    1  LIG1       -0.0052
      8 C          -1.0306   -0.6743    0.0000 C.ar    1  LIG1       -0.0293
      9 C          -0.2460   -0.4194    0.0000 C.ar    1  LIG1        0.0572
     10 C           0.4685   -0.8319    0.0000 C.ar    1  LIG1        0.0095
     11 H           2.1369    0.9564    0.0000 H       1  LIG1        0.0671
     12 H           0.4685    1.9196    0.0000 H       1  LIG1        0.0820
     13 H          -2.6170   -0.0069    0.0000 H       1  LIG1        0.0708
     14 H          -1.3710   -1.7219    0.0000 H       1  LIG1        0.0644
     15 H           0.4685   -1.9334    0.0000 H       1  LIG1        0.0677
@<TRIPOS>BOND
     1     1     2    2
     2     2     3   ar
     3     3     4   ar
     4     4     5   ar
     5     5     6   ar
     6     6     7   ar
     7     7     8   ar
     8     8     9   ar
     9     5     9   ar
    10     9    10   ar
    11     2    10   ar
    12     3    11    1
    13     4    12    1
    14     7    13    1
    15     8    14    1
    16    10    15    1
