@<TRIPOS>MOLECULE
O=c1[nH]ccn2ccnc12
 15 16 0 0 0
SMALL
GASTEIGER
Energy = 0

@<TRIPOS>ATOM
      1 O           0.4830   -1.4368    0.0000 O.2     1  LIG1       -0.2639
      2 C           0.4830   -0.6118    0.0000 C.ar    1  LIG1        0.2918
      3 N           1.1975   -0.1993    0.0000 N.ar    1  LIG1       -0.3247
      4 C           1.1975    0.6257    0.0000 C.ar    1  LIG1        0.0216
      5 C           0.4830    1.0382    0.0000 C.ar    1  LIG1        0.0273
      6 N          -0.2315    0.6257    0.0000 N.ar    1  LIG1       -0.3009
      7 C          -1.0161    0.8806    0.0000 C.ar    1  LIG1        0.0295
      8 C          -1.5010    0.2132    0.0000 C.ar    1  LIG1        0.0466
      9 N          -1.0161   -0.4543    0.0000 N.ar    1  LIG1       -0.2313
     10 C          -0.2315   -0.1993    0.0000 C.ar    1  LIG1        0.2032
     11 H           2.1350   -0.7406    0.0000 H       1  LIG1        0.1685
     12 H           2.1514    1.1765    0.0000 H       1  LIG1        0.0823
     13 H           0.4830    2.1397    0.0000 H       1  LIG1        0.0828
     14 H          -1.3565    1.9282    0.0000 H       1  LIG1        0.0829
     15 H          -2.6025    0.2132    0.0000 H       1  LIG1        0.0845
@<TRIPOS>BOND
     1     1     2    2
     2     2     3   ar
     3     3     4   ar
     4     4     5   ar
     5     5     6   ar
     6     6     7   ar
     7     7     8   ar
     8     8     9   ar
     9     9    10   ar
    10     2    10   ar
    11     6    10   ar
    12     3    11    1
    13     4    12    1
    14     5    13    1
    15     7    14    1
    16     8    15    1
