@<TRIPOS>MOLECULE
O=c1nncc[nH]1
 10 10 0 0 0
SMALL
GASTEIGER
Energy = 0

@<TRIPOS>ATOM
      1 O           0.0152   -1.3606    0.0000 O.2     1  LIG1       -0.2431
      2 C           0.0152   -0.5356    0.0000 C.ar    1  LIG1        0.3641
      3 N           0.7296   -0.1231    0.0000 N.ar    1  LIG1       -0.3103
      4 C           0.7296    0.7019    0.0000 C.ar    1  LIG1        0.0263
      5 C           0.0152    1.1144    0.0000 C.ar    1  LIG1        0.0661
      6 N          -0.6993    0.7019    0.0000 N.ar    1  LIG1       -0.1514
      7 N          -0.6993   -0.1231    0.0000 N.ar    1  LIG1       -0.0904
      8 H           1.6671   -0.6643    0.0000 H       1  LIG1        0.1700
      9 H           1.6835    1.2526    0.0000 H       1  LIG1        0.0824
     10 H           0.0152    2.2159    0.0000 H       1  LIG1        0.0863
@<TRIPOS>BOND
     1     1     2    2
     2     2     3   ar
     3     3     4   ar
     4     4     5   ar
     5     5     6   ar
     6     6     7   ar
     7     2     7   ar
     8     3     8    1
     9     4     9    1
    10     5    10    1
