@<TRIPOS>MOLECULE
c1ncc2cnnnc2n1
 13 14 0 0 0
SMALL
GASTEIGER
Energy = 0

@<TRIPOS>ATOM
      1 C           1.4509   -0.3935    0.0000 C.ar    1  LIG1        0.1184
      2 N           1.4509    0.4315    0.0000 N.ar    1  LIG1       -0.2429
      3 C           0.7364    0.8440    0.0000 C.ar    1  LIG1        0.0416
      4 C           0.0219    0.4315    0.0000 C.ar    1  LIG1        0.0589
      5 C          -0.6925    0.8440    0.0000 C.ar    1  LIG1        0.0638
      6 N          -1.4070    0.4315    0.0000 N.ar    1  LIG1       -0.1370
      7 N          -1.4070   -0.3935    0.0000 N.ar    1  LIG1       -0.0413
      8 N          -0.6925   -0.8060    0.0000 N.ar    1  LIG1       -0.1091
      9 C           0.0219   -0.3935    0.0000 C.ar    1  LIG1        0.1879
     10 N           0.7364   -0.8060    0.0000 N.ar    1  LIG1       -0.2143
     11 H           2.4048   -0.9443    0.0000 H       1  LIG1        0.1047
     12 H           0.7364    1.9455    0.0000 H       1  LIG1        0.0838
     13 H          -0.6925    1.9455    0.0000 H       1  LIG1        0.0856
@<TRIPOS>BOND
     1     1     2   ar
     2     2     3   ar
     3     3     4   ar
     4     4     5   ar
     5     5     6   ar
     6     6     7   ar
     7     7     8   ar
     8     8     9   ar
     9     4     9   ar
    10     9    10   ar
    11     1    10   ar
    12     1    11    1
    13     3    12    1
    14     5    13    1
