@<TRIPOS>MOLECULE
O=c1cccc2nc[nH]n12
 15 16 0 0 0
SMALL
GASTEIGER
Energy = 0

@<TRIPOS>ATOM
      1 O           0.5170   -1.4407    0.0000 O.2     1  LIG1       -0.2659
      2 C           0.5170   -0.6157    0.0000 C.ar    1  LIG1        0.2715
      3 C           1.2314   -0.2032    0.0000 C.ar    1  LIG1        0.0048
      4 C           1.2314    0.6218    0.0000 C.ar    1  LIG1       -0.0531
      5 C           0.5170    1.0343    0.0000 C.ar    1  LIG1       -0.0172
      6 C          -0.1975    0.6218    0.0000 C.ar    1  LIG1        0.1574
      7 N          -0.9821    0.8767    0.0000 N.ar    1  LIG1       -0.2172
      8 C          -1.4670    0.2093    0.0000 C.ar    1  LIG1        0.1106
      9 N          -0.9821   -0.4582    0.0000 N.ar    1  LIG1       -0.2783
     10 N          -0.1975   -0.2032    0.0000 N.ar    1  LIG1       -0.2001
     11 H           2.1853   -0.7539    0.0000 H       1  LIG1        0.0672
     12 H           2.1853    1.1725    0.0000 H       1  LIG1        0.0620
     13 H           0.5170    2.1358    0.0000 H       1  LIG1        0.0655
     14 H          -2.5685    0.2093    0.0000 H       1  LIG1        0.1041
     15 H          -1.3166   -1.4877    0.0000 H       1  LIG1        0.1885
@<TRIPOS>BOND
     1     1     2    2
     2     2     3   ar
     3     3     4   ar
     4     4     5   ar
     5     5     6   ar
     6     6     7   ar
     7     7     8   ar
     8     8     9   ar
     9     9    10   ar
    10     2    10   ar
    11     6    10   ar
    12     3    11    1
    13     4    12    1
    14     5    13    1
    15     8    14    1
    16     9    15    1
