@<TRIPOS>MOLECULE
O=c1cccc2scnn12
 14 15 0 0 0
SMALL
GASTEIGER
Energy = 0

@<TRIPOS>ATOM
      1 O           0.6367   -1.5476    0.0000 O.2     1  LIG1       -0.2658
      2 C           0.6367   -0.7226    0.0000 C.ar    1  LIG1        0.2723
      3 C           1.3512   -0.3101    0.0000 C.ar    1  LIG1        0.0048
      4 C           1.3512    0.5149    0.0000 C.ar    1  LIG1       -0.0541
      5 C           0.6367    0.9274    0.0000 C.ar    1  LIG1       -0.0291
      6 C          -0.0778    0.5149    0.0000 C.ar    1  LIG1        0.1078
      7 S          -0.8624    0.7698    0.0000 S.2     1  LIG1       -0.0560
      8 C          -1.3473    0.1024    0.0000 C.ar    1  LIG1        0.0875
      9 N          -0.8624   -0.5650    0.0000 N.ar    1  LIG1       -0.1640
     10 N          -0.0778   -0.3101    0.0000 N.ar    1  LIG1       -0.1895
     11 H           2.3051   -0.8609    0.0000 H       1  LIG1        0.0672
     12 H           2.3051    1.0657    0.0000 H       1  LIG1        0.0620
     13 H           0.6367    2.0289    0.0000 H       1  LIG1        0.0644
     14 H          -2.4488    0.1024    0.0000 H       1  LIG1        0.0926
@<TRIPOS>BOND
     1     1     2    2
     2     2     3   ar
     3     3     4   ar
     4     4     5   ar
     5     5     6   ar
     6     6     7   ar
     7     7     8   ar
     8     8     9   ar
     9     9    10   ar
    10     2    10   ar
    11     6    10   ar
    12     3    11    1
    13     4    12    1
    14     5    13    1
    15     8    14    1
