@<TRIPOS>MOLECULE
O=c1nc[nH]c2c[nH]cc12
 15 16 0 0 0
SMALL
GASTEIGER
Energy = 0

@<TRIPOS>ATOM
      1 O           0.4795   -1.4534    0.0000 O.2     1  LIG1       -0.2651
      2 C           0.4795   -0.6284    0.0000 C.ar    1  LIG1        0.2821
      3 N           1.1940   -0.2159    0.0000 N.ar    1  LIG1       -0.1990
      4 C           1.1940    0.6091    0.0000 C.ar    1  LIG1        0.0977
      5 N           0.4795    1.0216    0.0000 N.ar    1  LIG1       -0.3442
      6 C          -0.2350    0.6091    0.0000 C.ar    1  LIG1        0.0703
      7 C          -1.0196    0.8640    0.0000 C.ar    1  LIG1        0.0261
      8 N          -1.5045    0.1966    0.0000 N.ar    1  LIG1       -0.3646
      9 C          -1.0196   -0.4708    0.0000 C.ar    1  LIG1        0.0162
     10 C          -0.2350   -0.2159    0.0000 C.ar    1  LIG1        0.0818
     11 H           2.1479    1.1599    0.0000 H       1  LIG1        0.1028
     12 H           0.4795    2.1041    0.0000 H       1  LIG1        0.1668
     13 H          -1.3600    1.9116    0.0000 H       1  LIG1        0.0828
     14 H          -2.5870    0.1966    0.0000 H       1  LIG1        0.1648
     15 H          -1.3600   -1.5184    0.0000 H       1  LIG1        0.0815
@<TRIPOS>BOND
     1     1     2    2
     2     2     3   ar
     3     3     4   ar
     4     4     5   ar
     5     5     6   ar
     6     6     7   ar
     7     7     8   ar
     8     8     9   ar
     9     9    10   ar
    10     2    10   ar
    11     6    10   ar
    12     4    11    1
    13     5    12    1
    14     7    13    1
    15     8    14    1
    16     9    15    1
