@<TRIPOS>MOLECULE
O=c1cc[nH]cc1
 12 12 0 0 0
SMALL
GASTEIGER
Energy = 0

@<TRIPOS>ATOM
      1 O          -0.0000   -1.3752    0.0000 O.2     1  LIG1       -0.2878
      2 C          -0.0000   -0.5502    0.0000 C.ar    1  LIG1        0.1817
      3 C           0.7145   -0.1377    0.0000 C.ar    1  LIG1        0.0010
      4 C           0.7145    0.6873    0.0000 C.ar    1  LIG1        0.0052
      5 N           0.0000    1.0998    0.0000 N.ar    1  LIG1       -0.3667
      6 C          -0.7145    0.6873    0.0000 C.ar    1  LIG1        0.0052
      7 C          -0.7145   -0.1377    0.0000 C.ar    1  LIG1        0.0010
      8 H           1.6684   -0.6885    0.0000 H       1  LIG1        0.0670
      9 H           1.6684    1.2381    0.0000 H       1  LIG1        0.0808
     10 H           0.0000    2.1823    0.0000 H       1  LIG1        0.1648
     11 H          -1.6684    1.2381    0.0000 H       1  LIG1        0.0808
     12 H          -1.6684   -0.6885    0.0000 H       1  LIG1        0.0670
@<TRIPOS>BOND
     1     1     2    2
     2     2     3   ar
     3     3     4   ar
     4     4     5   ar
     5     5     6   ar
     6     6     7   ar
     7     2     7   ar
     8     3     8    1
     9     4     9    1
    10     5    10    1
    11     6    11    1
    12     7    12    1
