@<TRIPOS>MOLECULE
c1cn2ccnnc2n1
 13 14 0 0 0
SMALL
GASTEIGER
Energy = 0

@<TRIPOS>ATOM
      1 C           1.2558    0.4382    0.0000 C.ar    1  LIG1        0.0666
      2 C           0.5413    0.8507    0.0000 C.ar    1  LIG1        0.0324
      3 N          -0.1732    0.4382    0.0000 N.ar    1  LIG1       -0.2883
      4 C          -0.9578    0.6931    0.0000 C.ar    1  LIG1        0.0308
      5 C          -1.4427    0.0257    0.0000 C.ar    1  LIG1        0.0480
      6 N          -0.9578   -0.6418    0.0000 N.ar    1  LIG1       -0.2176
      7 C          -0.1732   -0.3868    0.0000 C.ar    1  LIG1        0.2541
      8 N           0.5413   -0.7993    0.0000 N.ar    1  LIG1       -0.1101
      9 N           1.2558   -0.3868    0.0000 N.ar    1  LIG1       -0.1527
     10 H           2.2097    0.9890    0.0000 H       1  LIG1        0.0863
     11 H           0.5413    1.9522    0.0000 H       1  LIG1        0.0830
     12 H          -1.2982    1.7407    0.0000 H       1  LIG1        0.0829
     13 H          -2.5442    0.0257    0.0000 H       1  LIG1        0.0846
@<TRIPOS>BOND
     1     1     2   ar
     2     2     3   ar
     3     3     4   ar
     4     4     5   ar
     5     5     6   ar
     6     6     7   ar
     7     3     7   ar
     8     7     8   ar
     9     8     9   ar
    10     1     9   ar
    11     1    10    1
    12     2    11    1
    13     4    12    1
    14     5    13    1
