@<TRIPOS>MOLECULE
O=c1cc2[nH]ccc2c[nH]1
 16 17 0 0 0
SMALL
GASTEIGER
Energy = 0

@<TRIPOS>ATOM
      1 O           1.7299   -0.7180    0.0000 O.2     1  LIG1       -0.2678
      2 C           1.0154   -0.3055    0.0000 C.ar    1  LIG1        0.2507
      3 N           1.0154    0.5195    0.0000 N.ar    1  LIG1       -0.3284
      4 C           0.3009    0.9320    0.0000 C.ar    1  LIG1        0.0141
      5 C          -0.4136    0.5195    0.0000 C.ar    1  LIG1        0.0158
      6 C          -1.1982    0.7745    0.0000 C.ar    1  LIG1       -0.0353
      7 C          -1.6831    0.1070    0.0000 C.ar    1  LIG1        0.0028
      8 N          -1.1982   -0.5604    0.0000 N.ar    1  LIG1       -0.3605
      9 C          -0.4136   -0.3055    0.0000 C.ar    1  LIG1        0.0530
     10 C           0.3009   -0.7180    0.0000 C.ar    1  LIG1        0.0267
     11 H           1.9529    1.0608    0.0000 H       1  LIG1        0.1683
     12 H           0.3009    2.0335    0.0000 H       1  LIG1        0.0814
     13 H          -1.5386    1.8221    0.0000 H       1  LIG1        0.0639
     14 H          -2.7846    0.1070    0.0000 H       1  LIG1        0.0807
     15 H          -1.5327   -1.5899    0.0000 H       1  LIG1        0.1653
     16 H           0.3009   -1.8195    0.0000 H       1  LIG1        0.0692
@<TRIPOS>BOND
     1     1     2    2
     2     2     3   ar
     3     3     4   ar
     4     4     5   ar
     5     5     6   ar
     6     6     7   ar
     7     7     8   ar
     8     8     9   ar
     9     5     9   ar
    10     9    10   ar
    11     2    10   ar
    12     3    11    1
    13     4    12    1
    14     6    13    1
    15     7    14    1
    16     8    15    1
    17    10    16    1
