@<TRIPOS>MOLECULE
Cn1c(=O)[nH]c(=O)c2cc[nH]c12
 19 20 0 0 0
SMALL
GASTEIGER
Energy = 0

@<TRIPOS>ATOM
      1 C          -0.2438   -1.5945    0.0000 C.3     1  LIG1        0.0180
      2 N          -0.2438   -0.7695    0.0000 N.ar    1  LIG1       -0.2824
      3 C          -0.9583   -0.3570    0.0000 C.ar    1  LIG1        0.3306
      4 O          -1.6727   -0.7695    0.0000 O.2     1  LIG1       -0.2464
      5 N          -0.9583    0.4680    0.0000 N.ar    1  LIG1       -0.2743
      6 C          -0.2438    0.8805    0.0000 C.ar    1  LIG1        0.2632
      7 O          -0.2438    1.7055    0.0000 O.2     1  LIG1       -0.2670
      8 C           0.4707    0.4680    0.0000 C.ar    1  LIG1        0.0814
      9 C           0.4707   -0.3570    0.0000 C.ar    1  LIG1        0.1273
     10 N           1.2553   -0.6119    0.0000 N.ar    1  LIG1       -0.3469
     11 C           1.7402    0.0555    0.0000 C.ar    1  LIG1        0.0043
     12 C           1.2553    0.7229    0.0000 C.ar    1  LIG1       -0.0299
     13 H          -1.3184   -1.9750    0.0000 H       1  LIG1        0.0458
     14 H           0.3147   -1.9892    0.9121 H       1  LIG1        0.0458
     15 H           0.2864   -1.9692   -0.9370 H       1  LIG1        0.0458
     16 H          -1.8958    1.0093    0.0000 H       1  LIG1        0.1734
     17 H           1.5898   -1.6414    0.0000 H       1  LIG1        0.1667
     18 H           2.8417    0.0555    0.0000 H       1  LIG1        0.0807
     19 H           1.5957    1.7705    0.0000 H       1  LIG1        0.0641
@<TRIPOS>BOND
     1     1     2    1
     2     2     3   ar
     3     3     4    2
     4     3     5   ar
     5     5     6   ar
     6     6     7    2
     7     6     8   ar
     8     8     9   ar
     9     2     9   ar
    10     9    10   ar
    11    10    11   ar
    12    11    12   ar
    13     8    12   ar
    14     1    13    1
    15     1    14    1
    16     1    15    1
    17     5    16    1
    18    10    17    1
    19    11    18    1
    20    12    19    1
