@<TRIPOS>MOLECULE
Cn1cccc2[nH]c(=O)nc12
 18 19 0 0 0
SMALL
GASTEIGER
Energy = 0

@<TRIPOS>ATOM
      1 C           0.7795   -1.4989    0.0000 C.3     1  LIG1        0.0133
      2 N           0.7795   -0.6739    0.0000 N.ar    1  LIG1       -0.3337
      3 C           1.4940   -0.2614    0.0000 C.ar    1  LIG1        0.0062
      4 C           1.4940    0.5636    0.0000 C.ar    1  LIG1       -0.0435
      5 C           0.7795    0.9761    0.0000 C.ar    1  LIG1       -0.0333
      6 C           0.0651    0.5636    0.0000 C.ar    1  LIG1        0.0863
      7 N          -0.7196    0.8185    0.0000 N.ar    1  LIG1       -0.3032
      8 C          -1.2045    0.1511    0.0000 C.ar    1  LIG1        0.3483
      9 O          -2.0295    0.1511    0.0000 O.2     1  LIG1       -0.2446
     10 N          -0.7196   -0.5164    0.0000 N.ar    1  LIG1       -0.1736
     11 C           0.0651   -0.2614    0.0000 C.ar    1  LIG1        0.1623
     12 H           1.8541   -1.8794    0.0000 H       1  LIG1        0.0456
     13 H           0.2210   -1.8936   -0.9121 H       1  LIG1        0.0456
     14 H           0.2493   -1.8736    0.9370 H       1  LIG1        0.0456
     15 H           2.4479   -0.8122    0.0000 H       1  LIG1        0.0809
     16 H           2.4479    1.1144    0.0000 H       1  LIG1        0.0633
     17 H           0.7795    2.0776    0.0000 H       1  LIG1        0.0640
     18 H          -1.0541    1.8480    0.0000 H       1  LIG1        0.1705
@<TRIPOS>BOND
     1     1     2    1
     2     2     3   ar
     3     3     4   ar
     4     4     5   ar
     5     5     6   ar
     6     6     7   ar
     7     7     8   ar
     8     8     9    2
     9     8    10   ar
    10    10    11   ar
    11     2    11   ar
    12     6    11   ar
    13     1    12    1
    14     1    13    1
    15     1    14    1
    16     3    15    1
    17     4    16    1
    18     5    17    1
    19     7    18    1
