@<TRIPOS>MOLECULE
c1cc2nnncc2o1
 12 13 0 0 0
SMALL
GASTEIGER
Energy = 0

@<TRIPOS>ATOM
      1 O           0.9658   -0.6588    0.0000 O.2     1  LIG1       -0.4597
      2 C           1.4507    0.0086    0.0000 C.ar    1  LIG1        0.0948
      3 C           0.9658    0.6760    0.0000 C.ar    1  LIG1        0.0041
      4 C           0.1812    0.4211    0.0000 C.ar    1  LIG1        0.1343
      5 N          -0.5333    0.8336    0.0000 N.ar    1  LIG1       -0.1261
      6 N          -1.2478    0.4211    0.0000 N.ar    1  LIG1       -0.0426
      7 N          -1.2478   -0.4039    0.0000 N.ar    1  LIG1       -0.1340
      8 C          -0.5333   -0.8164    0.0000 C.ar    1  LIG1        0.0959
      9 C           0.1812   -0.4039    0.0000 C.ar    1  LIG1        0.1745
     10 H           2.5522    0.0086    0.0000 H       1  LIG1        0.1030
     11 H           1.3062    1.7236    0.0000 H       1  LIG1        0.0671
     12 H          -0.5333   -1.9179    0.0000 H       1  LIG1        0.0887
@<TRIPOS>BOND
     1     1     2   ar
     2     2     3   ar
     3     3     4   ar
     4     4     5   ar
     5     5     6   ar
     6     6     7   ar
     7     7     8   ar
     8     8     9   ar
     9     1     9   ar
    10     4     9   ar
    11     2    10    1
    12     3    11    1
    13     8    12    1
