@<TRIPOS>MOLECULE
Cn1cc2ccoc2n1
 15 16 0 0 0
SMALL
GASTEIGER
Energy = 0

@<TRIPOS>ATOM
      1 C           1.8695    0.0344    0.0000 C.3     1  LIG1        0.0303
      2 N           1.0445    0.0344    0.0000 N.ar    1  LIG1       -0.2704
      3 C           0.5595    0.7019    0.0000 C.ar    1  LIG1        0.0362
      4 C          -0.2251    0.4469    0.0000 C.ar    1  LIG1        0.0589
      5 C          -1.0097    0.7019    0.0000 C.ar    1  LIG1       -0.0130
      6 C          -1.4946    0.0344    0.0000 C.ar    1  LIG1        0.0952
      7 O          -1.0097   -0.6330    0.0000 O.2     1  LIG1       -0.4440
      8 C          -0.2251   -0.3781    0.0000 C.ar    1  LIG1        0.2459
      9 N           0.5595   -0.6330    0.0000 N.ar    1  LIG1       -0.1327
     10 H           2.2500    1.1090    0.0000 H       1  LIG1        0.0473
     11 H           2.2642   -0.5241   -0.9121 H       1  LIG1        0.0473
     12 H           2.2442   -0.4958    0.9370 H       1  LIG1        0.0473
     13 H           0.8998    1.7495    0.0000 H       1  LIG1        0.0833
     14 H          -1.3501    1.7495    0.0000 H       1  LIG1        0.0656
     15 H          -2.5961    0.0344    0.0000 H       1  LIG1        0.1030
@<TRIPOS>BOND
     1     1     2    1
     2     2     3   ar
     3     3     4   ar
     4     4     5   ar
     5     5     6   ar
     6     6     7   ar
     7     7     8   ar
     8     4     8   ar
     9     8     9   ar
    10     2     9   ar
    11     1    10    1
    12     1    11    1
    13     1    12    1
    14     3    13    1
    15     5    14    1
    16     6    15    1
