@<TRIPOS>MOLECULE
O=c1ccc2cn[nH]c2[nH]1
 15 16 0 0 0
SMALL
GASTEIGER
Energy = 0

@<TRIPOS>ATOM
      1 O          -1.7666    0.7006    0.0000 O.2     1  LIG1       -0.2679
      2 C          -1.0522    0.2881    0.0000 C.ar    1  LIG1        0.2502
      3 N          -0.3377    0.7006    0.0000 N.ar    1  LIG1       -0.3073
      4 C           0.3768    0.2881    0.0000 C.ar    1  LIG1        0.1364
      5 C           0.3768   -0.5369    0.0000 C.ar    1  LIG1        0.0367
      6 C          -0.3377   -0.9494    0.0000 C.ar    1  LIG1       -0.0445
      7 C          -1.0522   -0.5369    0.0000 C.ar    1  LIG1        0.0035
      8 C           1.1614   -0.7918    0.0000 C.ar    1  LIG1        0.0584
      9 N           1.6463   -0.1244    0.0000 N.ar    1  LIG1       -0.1799
     10 N           1.1614    0.5431    0.0000 N.ar    1  LIG1       -0.2616
     11 H          -0.3377    1.7831    0.0000 H       1  LIG1        0.1703
     12 H          -0.3377   -2.0509    0.0000 H       1  LIG1        0.0627
     13 H          -2.0061   -1.0877    0.0000 H       1  LIG1        0.0672
     14 H           1.5018   -1.8394    0.0000 H       1  LIG1        0.0854
     15 H           1.4959    1.5726    0.0000 H       1  LIG1        0.1905
@<TRIPOS>BOND
     1     1     2    2
     2     2     3   ar
     3     3     4   ar
     4     4     5   ar
     5     5     6   ar
     6     6     7   ar
     7     2     7   ar
     8     5     8   ar
     9     8     9   ar
    10     9    10   ar
    11     4    10   ar
    12     3    11    1
    13     6    12    1
    14     7    13    1
    15     8    14    1
    16    10    15    1
