@<TRIPOS>MOLECULE
c1cc2nnccc2nn1
 14 15 0 0 0
SMALL
GASTEIGER
Energy = 0

@<TRIPOS>ATOM
      1 C           1.4289    0.4125    0.0000 C.ar    1  LIG1        0.0521
      2 C           0.7145    0.8250    0.0000 C.ar    1  LIG1       -0.0125
      3 C          -0.0000    0.4125    0.0000 C.ar    1  LIG1        0.1147
      4 N          -0.7145    0.8250    0.0000 N.ar    1  LIG1       -0.1476
      5 N          -1.4289    0.4125    0.0000 N.ar    1  LIG1       -0.1570
      6 C          -1.4289   -0.4125    0.0000 C.ar    1  LIG1        0.0521
      7 C          -0.7145   -0.8250    0.0000 C.ar    1  LIG1       -0.0125
      8 C          -0.0000   -0.4125    0.0000 C.ar    1  LIG1        0.1147
      9 N           0.7145   -0.8250    0.0000 N.ar    1  LIG1       -0.1476
     10 N           1.4289   -0.4125    0.0000 N.ar    1  LIG1       -0.1570
     11 H           2.3828    0.9632    0.0000 H       1  LIG1        0.0849
     12 H           0.7145    1.9265    0.0000 H       1  LIG1        0.0656
     13 H          -2.3828   -0.9632    0.0000 H       1  LIG1        0.0849
     14 H          -0.7145   -1.9265    0.0000 H       1  LIG1        0.0656
@<TRIPOS>BOND
     1     1     2   ar
     2     2     3   ar
     3     3     4   ar
     4     4     5   ar
     5     5     6   ar
     6     6     7   ar
     7     7     8   ar
     8     3     8   ar
     9     8     9   ar
    10     9    10   ar
    11     1    10   ar
    12     1    11    1
    13     2    12    1
    14     6    13    1
    15     7    14    1
