@<TRIPOS>MOLECULE
O=c1cc[nH]c2c[nH]cc12
 16 17 0 0 0
SMALL
GASTEIGER
Energy = 0

@<TRIPOS>ATOM
      1 O           0.4981   -1.4568    0.0000 O.2     1  LIG1       -0.2871
      2 C           0.4981   -0.6318    0.0000 C.ar    1  LIG1        0.1908
      3 C           1.2126   -0.2193    0.0000 C.ar    1  LIG1        0.0017
      4 C           1.2126    0.6057    0.0000 C.ar    1  LIG1        0.0058
      5 N           0.4981    1.0182    0.0000 N.ar    1  LIG1       -0.3593
      6 C          -0.2164    0.6057    0.0000 C.ar    1  LIG1        0.0676
      7 C          -1.0010    0.8607    0.0000 C.ar    1  LIG1        0.0260
      8 N          -1.4859    0.1932    0.0000 N.ar    1  LIG1       -0.3646
      9 C          -1.0010   -0.4742    0.0000 C.ar    1  LIG1        0.0145
     10 C          -0.2164   -0.2193    0.0000 C.ar    1  LIG1        0.0622
     11 H           2.1665   -0.7701    0.0000 H       1  LIG1        0.0670
     12 H           2.1665    1.1565    0.0000 H       1  LIG1        0.0808
     13 H           0.4981    2.1007    0.0000 H       1  LIG1        0.1654
     14 H          -1.3414    1.9083    0.0000 H       1  LIG1        0.0828
     15 H          -2.5684    0.1932    0.0000 H       1  LIG1        0.1648
     16 H          -1.3414   -1.5218    0.0000 H       1  LIG1        0.0815
@<TRIPOS>BOND
     1     1     2    2
     2     2     3   ar
     3     3     4   ar
     4     4     5   ar
     5     5     6   ar
     6     6     7   ar
     7     7     8   ar
     8     8     9   ar
     9     9    10   ar
    10     2    10   ar
    11     6    10   ar
    12     3    11    1
    13     4    12    1
    14     5    13    1
    15     7    14    1
    16     8    15    1
    17     9    16    1
