@<TRIPOS>MOLECULE
Cn1ncc2nncnc12
 15 16 0 0 0
SMALL
GASTEIGER
Energy = 0

@<TRIPOS>ATOM
      1 C           1.0896   -1.3141    0.0000 C.3     1  LIG1        0.0325
      2 N           0.8347   -0.5295    0.0000 N.ar    1  LIG1       -0.2482
      3 N           1.3196    0.1380    0.0000 N.ar    1  LIG1       -0.1758
      4 C           0.8347    0.8054    0.0000 C.ar    1  LIG1        0.0787
      5 C           0.0500    0.5505    0.0000 C.ar    1  LIG1        0.1495
      6 N          -0.6644    0.9630    0.0000 N.ar    1  LIG1       -0.1431
      7 N          -1.3789    0.5505    0.0000 N.ar    1  LIG1       -0.1370
      8 C          -1.3789   -0.2745    0.0000 C.ar    1  LIG1        0.1406
      9 N          -0.6644   -0.6870    0.0000 N.ar    1  LIG1       -0.2129
     10 C           0.0500   -0.2745    0.0000 C.ar    1  LIG1        0.1799
     11 H           2.2292   -1.3440    0.0000 H       1  LIG1        0.0473
     12 H           0.6804   -1.8620   -0.9121 H       1  LIG1        0.0473
     13 H           0.7011   -1.8343    0.9370 H       1  LIG1        0.0473
     14 H           1.1751    1.8530    0.0000 H       1  LIG1        0.0871
     15 H          -2.3328   -0.8253    0.0000 H       1  LIG1        0.1066
@<TRIPOS>BOND
     1     1     2    1
     2     2     3   ar
     3     3     4   ar
     4     4     5   ar
     5     5     6   ar
     6     6     7   ar
     7     7     8   ar
     8     8     9   ar
     9     9    10   ar
    10     2    10   ar
    11     5    10   ar
    12     1    11    1
    13     1    12    1
    14     1    13    1
    15     4    14    1
    16     8    15    1
