@<TRIPOS>MOLECULE
Cn1cncc2c(=O)ccnc12
 19 20 0 0 0
SMALL
GASTEIGER
Energy = 0

@<TRIPOS>ATOM
      1 C           0.7145   -1.6767    0.0000 C.3     1  LIG1        0.0146
      2 N           0.7145   -0.8517    0.0000 N.ar    1  LIG1       -0.3193
      3 C           1.4289   -0.4392    0.0000 C.ar    1  LIG1        0.0971
      4 N           1.4289    0.3858    0.0000 N.ar    1  LIG1       -0.2446
      5 C           0.7145    0.7983    0.0000 C.ar    1  LIG1        0.0436
      6 C          -0.0000    0.3858    0.0000 C.ar    1  LIG1        0.0821
      7 C          -0.7145    0.7983    0.0000 C.ar    1  LIG1        0.1925
      8 O          -0.7145    1.6233    0.0000 O.2     1  LIG1       -0.2871
      9 C          -1.4290    0.3858    0.0000 C.ar    1  LIG1        0.0040
     10 C          -1.4290   -0.4392    0.0000 C.ar    1  LIG1        0.0336
     11 N          -0.7145   -0.8517    0.0000 N.ar    1  LIG1       -0.2370
     12 C          -0.0000   -0.4392    0.0000 C.ar    1  LIG1        0.1466
     13 H           1.7891   -2.0572    0.0000 H       1  LIG1        0.0457
     14 H           0.1560   -2.0714   -0.9121 H       1  LIG1        0.0457
     15 H           0.1843   -2.0514    0.9370 H       1  LIG1        0.0457
     16 H           2.3828   -0.9899    0.0000 H       1  LIG1        0.1029
     17 H           0.7145    1.8998    0.0000 H       1  LIG1        0.0838
     18 H          -2.3829    0.9366    0.0000 H       1  LIG1        0.0671
     19 H          -2.3829   -0.9900    0.0000 H       1  LIG1        0.0831
@<TRIPOS>BOND
     1     1     2    1
     2     2     3   ar
     3     3     4   ar
     4     4     5   ar
     5     5     6   ar
     6     6     7   ar
     7     7     8    2
     8     7     9   ar
     9     9    10   ar
    10    10    11   ar
    11    11    12   ar
    12     2    12   ar
    13     6    12   ar
    14     1    13    1
    15     1    14    1
    16     1    15    1
    17     3    16    1
    18     5    17    1
    19     9    18    1
    20    10    19    1
