@<TRIPOS>MOLECULE
Cn1ccn2ccc(=O)nc12
 18 19 0 0 0
SMALL
GASTEIGER
Energy = 0

@<TRIPOS>ATOM
      1 C           1.3144   -1.2213    0.0000 C.3     1  LIG1        0.0146
      2 N           1.0595   -0.4366    0.0000 N.ar    1  LIG1       -0.3194
      3 C           1.5444    0.2308    0.0000 C.ar    1  LIG1        0.0240
      4 C           1.0595    0.8982    0.0000 C.ar    1  LIG1        0.0287
      5 N           0.2749    0.6433    0.0000 N.ar    1  LIG1       -0.2921
      6 C          -0.4396    1.0558    0.0000 C.ar    1  LIG1        0.0177
      7 C          -1.1541    0.6433    0.0000 C.ar    1  LIG1        0.0213
      8 C          -1.1541   -0.1817    0.0000 C.ar    1  LIG1        0.2746
      9 O          -1.8685   -0.5942    0.0000 O.2     1  LIG1       -0.2657
     10 N          -0.4396   -0.5942    0.0000 N.ar    1  LIG1       -0.1743
     11 C           0.2749   -0.1817    0.0000 C.ar    1  LIG1        0.2181
     12 H           2.4540   -1.2512    0.0000 H       1  LIG1        0.0457
     13 H           0.9052   -1.7692   -0.9121 H       1  LIG1        0.0457
     14 H           0.9259   -1.7415    0.9370 H       1  LIG1        0.0457
     15 H           2.6459    0.2308    0.0000 H       1  LIG1        0.0825
     16 H           1.3999    1.9458    0.0000 H       1  LIG1        0.0828
     17 H          -0.4396    2.1573    0.0000 H       1  LIG1        0.0815
     18 H          -2.1080    1.1941    0.0000 H       1  LIG1        0.0687
@<TRIPOS>BOND
     1     1     2    1
     2     2     3   ar
     3     3     4   ar
     4     4     5   ar
     5     5     6   ar
     6     6     7   ar
     7     7     8   ar
     8     8     9    2
     9     8    10   ar
    10    10    11   ar
    11     2    11   ar
    12     5    11   ar
    13     1    12    1
    14     1    13    1
    15     1    14    1
    16     3    15    1
    17     4    16    1
    18     6    17    1
    19     7    18    1
