@<TRIPOS>MOLECULE
Cn1ncc2cccnc12
 17 18 0 0 0
SMALL
GASTEIGER
Energy = 0

@<TRIPOS>ATOM
      1 C           1.0573   -1.2901    0.0000 C.3     1  LIG1        0.0324
      2 N           0.8023   -0.5055    0.0000 N.ar    1  LIG1       -0.2495
      3 N           1.2872    0.1619    0.0000 N.ar    1  LIG1       -0.1774
      4 C           0.8023    0.8294    0.0000 C.ar    1  LIG1        0.0587
      5 C           0.0177    0.5744    0.0000 C.ar    1  LIG1        0.0386
      6 C          -0.6968    0.9869    0.0000 C.ar    1  LIG1       -0.0481
      7 C          -1.4112    0.5744    0.0000 C.ar    1  LIG1       -0.0428
      8 C          -1.4112   -0.2506    0.0000 C.ar    1  LIG1        0.0300
      9 N          -0.6968   -0.6631    0.0000 N.ar    1  LIG1       -0.2359
     10 C           0.0177   -0.2506    0.0000 C.ar    1  LIG1        0.1579
     11 H           2.1969   -1.3199    0.0000 H       1  LIG1        0.0473
     12 H           0.6482   -1.8381   -0.9121 H       1  LIG1        0.0473
     13 H           0.6688   -1.8104    0.9370 H       1  LIG1        0.0473
     14 H           1.1427    1.8770    0.0000 H       1  LIG1        0.0854
     15 H          -0.6968    2.0884    0.0000 H       1  LIG1        0.0626
     16 H          -2.3651    1.1251    0.0000 H       1  LIG1        0.0633
     17 H          -2.3651   -0.8013    0.0000 H       1  LIG1        0.0830
@<TRIPOS>BOND
     1     1     2    1
     2     2     3   ar
     3     3     4   ar
     4     4     5   ar
     5     5     6   ar
     6     6     7   ar
     7     7     8   ar
     8     8     9   ar
     9     9    10   ar
    10     2    10   ar
    11     5    10   ar
    12     1    11    1
    13     1    12    1
    14     1    13    1
    15     4    14    1
    16     6    15    1
    17     7    16    1
    18     8    17    1
