@<TRIPOS>MOLECULE
Cn1cc2[nH]ccc2nc1=O
 18 19 0 0 0
SMALL
GASTEIGER
Energy = 0

@<TRIPOS>ATOM
      1 C           1.5794    0.8446    0.0000 C.3     1  LIG1        0.0162
      2 N           0.8649    0.4321    0.0000 N.ar    1  LIG1       -0.3002
      3 C           0.1505    0.8446    0.0000 C.ar    1  LIG1        0.0344
      4 C          -0.5640    0.4321    0.0000 C.ar    1  LIG1        0.0816
      5 N          -1.3486    0.6870    0.0000 N.ar    1  LIG1       -0.3583
      6 C          -1.8335    0.0196    0.0000 C.ar    1  LIG1        0.0043
      7 C          -1.3486   -0.6479    0.0000 C.ar    1  LIG1       -0.0181
      8 C          -0.5640   -0.3929    0.0000 C.ar    1  LIG1        0.0953
      9 N           0.1505   -0.8054    0.0000 N.ar    1  LIG1       -0.1914
     10 C           0.8649   -0.3929    0.0000 C.ar    1  LIG1        0.3488
     11 O           1.5794   -0.8054    0.0000 O.2     1  LIG1       -0.2445
     12 H           1.3717    1.9655    0.0000 H       1  LIG1        0.0457
     13 H           2.2004    0.5583   -0.9121 H       1  LIG1        0.0457
     14 H           2.1691    0.5728    0.9370 H       1  LIG1        0.0457
     15 H           0.1505    1.9461    0.0000 H       1  LIG1        0.0832
     16 H          -1.6831    1.7165    0.0000 H       1  LIG1        0.1654
     17 H          -2.9350    0.0196    0.0000 H       1  LIG1        0.0807
     18 H          -1.6890   -1.6955    0.0000 H       1  LIG1        0.0654
@<TRIPOS>BOND
     1     1     2    1
     2     2     3   ar
     3     3     4   ar
     4     4     5   ar
     5     5     6   ar
     6     6     7   ar
     7     7     8   ar
     8     4     8   ar
     9     8     9   ar
    10     9    10   ar
    11     2    10   ar
    12    10    11    2
    13     1    12    1
    14     1    13    1
    15     1    14    1
    16     3    15    1
    17     5    16    1
    18     6    17    1
    19     7    18    1
