@<TRIPOS>MOLECULE
c1cnc2[nH]nnc2c1
 13 14 0 0 0
SMALL
GASTEIGER
Energy = 0

@<TRIPOS>ATOM
      1 N           0.8979   -0.6533    0.0000 N.ar    1  LIG1       -0.2403
      2 N           1.3828    0.0142    0.0000 N.ar    1  LIG1       -0.0660
      3 N           0.8979    0.6816    0.0000 N.ar    1  LIG1       -0.1280
      4 C           0.1133    0.4267    0.0000 C.ar    1  LIG1        0.1313
      5 C          -0.6012    0.8392    0.0000 C.ar    1  LIG1       -0.0294
      6 C          -1.3156    0.4267    0.0000 C.ar    1  LIG1       -0.0414
      7 C          -1.3156   -0.3983    0.0000 C.ar    1  LIG1        0.0301
      8 N          -0.6012   -0.8108    0.0000 N.ar    1  LIG1       -0.2348
      9 C           0.1133   -0.3983    0.0000 C.ar    1  LIG1        0.1759
     10 H           1.2324   -1.6828    0.0000 H       1  LIG1        0.1923
     11 H          -0.6012    1.9407    0.0000 H       1  LIG1        0.0641
     12 H          -2.2695    0.9774    0.0000 H       1  LIG1        0.0633
     13 H          -2.2695   -0.9490    0.0000 H       1  LIG1        0.0830
@<TRIPOS>BOND
     1     1     2   ar
     2     2     3   ar
     3     3     4   ar
     4     4     5   ar
     5     5     6   ar
     6     6     7   ar
     7     7     8   ar
     8     8     9   ar
     9     1     9   ar
    10     4     9   ar
    11     1    10    1
    12     5    11    1
    13     6    12    1
    14     7    13    1
