@<TRIPOS>MOLECULE
c1snc2ccccc12
 14 15 0 0 0
SMALL
GASTEIGER
Energy = 0

@<TRIPOS>ATOM
      1 S           1.1955    0.0102    0.0000 S.2     1  LIG1        0.0044
      2 C           0.7106    0.6777    0.0000 C.ar    1  LIG1        0.0035
      3 C          -0.0740    0.4227    0.0000 C.ar    1  LIG1        0.0089
      4 C          -0.7885    0.8352    0.0000 C.ar    1  LIG1       -0.0520
      5 C          -1.5030    0.4227    0.0000 C.ar    1  LIG1       -0.0611
      6 C          -1.5030   -0.4023    0.0000 C.ar    1  LIG1       -0.0597
      7 C          -0.7885   -0.8148    0.0000 C.ar    1  LIG1       -0.0351
      8 C          -0.0740   -0.4023    0.0000 C.ar    1  LIG1        0.0800
      9 N           0.7106   -0.6572    0.0000 N.ar    1  LIG1       -0.2104
     10 H           1.0510    1.7253    0.0000 H       1  LIG1        0.0715
     11 H          -0.7885    1.9367    0.0000 H       1  LIG1        0.0624
     12 H          -2.4569    0.9735    0.0000 H       1  LIG1        0.0618
     13 H          -2.4569   -0.9531    0.0000 H       1  LIG1        0.0618
     14 H          -0.7885   -1.9163    0.0000 H       1  LIG1        0.0639
@<TRIPOS>BOND
     1     1     2   ar
     2     2     3   ar
     3     3     4   ar
     4     4     5   ar
     5     5     6   ar
     6     6     7   ar
     7     7     8   ar
     8     3     8   ar
     9     8     9   ar
    10     1     9   ar
    11     2    10    1
    12     4    11    1
    13     5    12    1
    14     6    13    1
    15     7    14    1
