@<TRIPOS>MOLECULE
O=c1onc2cnccn12
 13 14 0 0 0
SMALL
GASTEIGER
Energy = 0

@<TRIPOS>ATOM
      1 O           1.0170   -1.2887    0.0000 O.2     1  LIG1       -0.2203
      2 C           0.7621   -0.5041    0.0000 C.ar    1  LIG1        0.4469
      3 O           1.2470    0.1633    0.0000 O.2     1  LIG1       -0.2947
      4 N           0.7621    0.8308    0.0000 N.ar    1  LIG1       -0.0527
      5 C          -0.0225    0.5758    0.0000 C.ar    1  LIG1        0.2005
      6 C          -0.7370    0.9883    0.0000 C.ar    1  LIG1        0.0738
      7 N          -1.4515    0.5758    0.0000 N.ar    1  LIG1       -0.2581
      8 C          -1.4515   -0.2492    0.0000 C.ar    1  LIG1        0.0444
      9 C          -0.7370   -0.6617    0.0000 C.ar    1  LIG1        0.0358
     10 N          -0.0225   -0.2492    0.0000 N.ar    1  LIG1       -0.2299
     11 H          -0.7370    2.0898    0.0000 H       1  LIG1        0.0868
     12 H          -2.4054   -0.8000    0.0000 H       1  LIG1        0.0844
     13 H          -0.7370   -1.7632    0.0000 H       1  LIG1        0.0831
@<TRIPOS>BOND
     1     1     2    2
     2     2     3   ar
     3     3     4   ar
     4     4     5   ar
     5     5     6   ar
     6     6     7   ar
     7     7     8   ar
     8     8     9   ar
     9     9    10   ar
    10     2    10   ar
    11     5    10   ar
    12     6    11    1
    13     8    12    1
    14     9    13    1
