@<TRIPOS>MOLECULE
Cn1nc2cnccn2c1=O
 17 18 0 0 0
SMALL
GASTEIGER
Energy = 0

@<TRIPOS>ATOM
      1 C           1.9166    0.1520    0.0000 C.3     1  LIG1        0.0355
      2 N           1.0916    0.1520    0.0000 N.ar    1  LIG1       -0.2154
      3 N           0.6066    0.8194    0.0000 N.ar    1  LIG1       -0.1475
      4 C          -0.1780    0.5645    0.0000 C.ar    1  LIG1        0.1800
      5 C          -0.8925    0.9770    0.0000 C.ar    1  LIG1        0.0722
      6 N          -1.6069    0.5645    0.0000 N.ar    1  LIG1       -0.2581
      7 C          -1.6069   -0.2605    0.0000 C.ar    1  LIG1        0.0444
      8 C          -0.8925   -0.6730    0.0000 C.ar    1  LIG1        0.0342
      9 N          -0.1780   -0.2605    0.0000 N.ar    1  LIG1       -0.2481
     10 C           0.6066   -0.5155    0.0000 C.ar    1  LIG1        0.3509
     11 O           0.8616   -1.3001    0.0000 O.2     1  LIG1       -0.2444
     12 H           2.2971    1.2266    0.0000 H       1  LIG1        0.0474
     13 H           2.3113   -0.4065   -0.9121 H       1  LIG1        0.0474
     14 H           2.2913   -0.3782    0.9370 H       1  LIG1        0.0474
     15 H          -0.8925    2.0785    0.0000 H       1  LIG1        0.0867
     16 H          -2.5608   -0.8112    0.0000 H       1  LIG1        0.0844
     17 H          -0.8925   -1.7745    0.0000 H       1  LIG1        0.0830
@<TRIPOS>BOND
     1     1     2    1
     2     2     3   ar
     3     3     4   ar
     4     4     5   ar
     5     5     6   ar
     6     6     7   ar
     7     7     8   ar
     8     8     9   ar
     9     4     9   ar
    10     9    10   ar
    11     2    10   ar
    12    10    11    2
    13     1    12    1
    14     1    13    1
    15     1    14    1
    16     5    15    1
    17     7    16    1
    18     8    17    1
