@<TRIPOS>MOLECULE
Cn1ncc2ccncc12
 17 18 0 0 0
SMALL
GASTEIGER
Energy = 0

@<TRIPOS>ATOM
      1 C           1.0686   -1.2967    0.0000 C.3     1  LIG1        0.0309
      2 N           0.8136   -0.5120    0.0000 N.ar    1  LIG1       -0.2653
      3 N           1.2986    0.1554    0.0000 N.ar    1  LIG1       -0.1787
      4 C           0.8136    0.8228    0.0000 C.ar    1  LIG1        0.0572
      5 C           0.0290    0.5679    0.0000 C.ar    1  LIG1        0.0226
      6 C          -0.6855    0.9804    0.0000 C.ar    1  LIG1       -0.0329
      7 C          -1.3999    0.5679    0.0000 C.ar    1  LIG1        0.0283
      8 N          -1.3999   -0.2571    0.0000 N.ar    1  LIG1       -0.2611
      9 C          -0.6855   -0.6696    0.0000 C.ar    1  LIG1        0.0531
     10 C           0.0290   -0.2571    0.0000 C.ar    1  LIG1        0.0866
     11 H           2.2082   -1.3265    0.0000 H       1  LIG1        0.0473
     12 H           0.6595   -1.8446   -0.9121 H       1  LIG1        0.0473
     13 H           0.6801   -1.8170    0.9370 H       1  LIG1        0.0473
     14 H           1.1539    1.8704    0.0000 H       1  LIG1        0.0854
     15 H          -0.6855    2.0819    0.0000 H       1  LIG1        0.0640
     16 H          -2.3538    1.1186    0.0000 H       1  LIG1        0.0830
     17 H          -0.6855   -1.7711    0.0000 H       1  LIG1        0.0851
@<TRIPOS>BOND
     1     1     2    1
     2     2     3   ar
     3     3     4   ar
     4     4     5   ar
     5     5     6   ar
     6     6     7   ar
     7     7     8   ar
     8     8     9   ar
     9     9    10   ar
    10     2    10   ar
    11     5    10   ar
    12     1    11    1
    13     1    12    1
    14     1    13    1
    15     4    14    1
    16     6    15    1
    17     7    16    1
    18     9    17    1
