@<TRIPOS>MOLECULE
O=c1nnc2c[nH][nH]cc12
 14 15 0 0 0
SMALL
GASTEIGER
Energy = 0

@<TRIPOS>ATOM
      1 O           1.0575   -1.2863    0.0000 O.2     1  LIG1       -0.2636
      2 C           0.8025   -0.5016    0.0000 C.ar    1  LIG1        0.2990
      3 N           1.2874    0.1658    0.0000 N.ar    1  LIG1       -0.1054
      4 N           0.8025    0.8332    0.0000 N.ar    1  LIG1       -0.1439
      5 C           0.0179    0.5783    0.0000 C.ar    1  LIG1        0.1174
      6 C          -0.6966    0.9908    0.0000 C.ar    1  LIG1        0.0467
      7 N          -1.4110    0.5783    0.0000 N.ar    1  LIG1       -0.3053
      8 N          -1.4110   -0.2467    0.0000 N.ar    1  LIG1       -0.3065
      9 C          -0.6966   -0.6592    0.0000 C.ar    1  LIG1        0.0333
     10 C           0.0179   -0.2467    0.0000 C.ar    1  LIG1        0.0885
     11 H          -0.6966    2.0923    0.0000 H       1  LIG1        0.0845
     12 H          -2.3485    1.1195    0.0000 H       1  LIG1        0.1861
     13 H          -2.3485   -0.7879    0.0000 H       1  LIG1        0.1860
     14 H          -0.6966   -1.7607    0.0000 H       1  LIG1        0.0831
@<TRIPOS>BOND
     1     1     2    2
     2     2     3   ar
     3     3     4   ar
     4     4     5   ar
     5     5     6   ar
     6     6     7   ar
     7     7     8   ar
     8     8     9   ar
     9     9    10   ar
    10     2    10   ar
    11     5    10   ar
    12     6    11    1
    13     7    12    1
    14     8    13    1
    15     9    14    1
