@<TRIPOS>MOLECULE
Cn1c(=O)ccc2cnoc12
 17 18 0 0 0
SMALL
GASTEIGER
Energy = 0

@<TRIPOS>ATOM
      1 C          -0.3256   -1.3909    0.0000 C.3     1  LIG1        0.0181
      2 N          -0.3256   -0.5659    0.0000 N.ar    1  LIG1       -0.2799
      3 C          -1.0401   -0.1534    0.0000 C.ar    1  LIG1        0.2537
      4 O          -1.7546   -0.5659    0.0000 O.2     1  LIG1       -0.2676
      5 C          -1.0401    0.6716    0.0000 C.ar    1  LIG1        0.0038
      6 C          -0.3256    1.0841    0.0000 C.ar    1  LIG1       -0.0428
      7 C           0.3889    0.6716    0.0000 C.ar    1  LIG1        0.0591
      8 C           0.3889   -0.1534    0.0000 C.ar    1  LIG1        0.2417
      9 O           1.1735   -0.4084    0.0000 O.2     1  LIG1       -0.3362
     10 N           1.6584    0.2591    0.0000 N.ar    1  LIG1       -0.0836
     11 C           1.1735    0.9265    0.0000 C.ar    1  LIG1        0.0794
     12 H          -1.4002   -1.7714    0.0000 H       1  LIG1        0.0458
     13 H           0.2329   -1.7856    0.9121 H       1  LIG1        0.0458
     14 H           0.2046   -1.7656   -0.9370 H       1  LIG1        0.0458
     15 H          -1.9940    1.2224    0.0000 H       1  LIG1        0.0672
     16 H          -0.3256    2.1856    0.0000 H       1  LIG1        0.0627
     17 H           1.5139    1.9741    0.0000 H       1  LIG1        0.0871
@<TRIPOS>BOND
     1     1     2    1
     2     2     3   ar
     3     3     4    2
     4     3     5   ar
     5     5     6   ar
     6     6     7   ar
     7     7     8   ar
     8     2     8   ar
     9     8     9   ar
    10     9    10   ar
    11    10    11   ar
    12     7    11   ar
    13     1    12    1
    14     1    13    1
    15     1    14    1
    16     5    15    1
    17     6    16    1
    18    11    17    1
