@<TRIPOS>MOLECULE
c1[nH]nc2ccnnc12
 13 14 0 0 0
SMALL
GASTEIGER
Energy = 0

@<TRIPOS>ATOM
      1 N           1.4209   -0.0098    0.0000 N.ar    1  LIG1       -0.2820
      2 C           0.9360    0.6576    0.0000 C.ar    1  LIG1        0.0501
      3 C           0.1514    0.4027    0.0000 C.ar    1  LIG1        0.1305
      4 N          -0.5631    0.8152    0.0000 N.ar    1  LIG1       -0.1461
      5 N          -1.2776    0.4027    0.0000 N.ar    1  LIG1       -0.1570
      6 C          -1.2776   -0.4223    0.0000 C.ar    1  LIG1        0.0521
      7 C          -0.5631   -0.8348    0.0000 C.ar    1  LIG1       -0.0126
      8 C           0.1514   -0.4223    0.0000 C.ar    1  LIG1        0.1139
      9 N           0.9360   -0.6772    0.0000 N.ar    1  LIG1       -0.1722
     10 H           2.5034   -0.0098    0.0000 H       1  LIG1        0.1883
     11 H           1.2764    1.7052    0.0000 H       1  LIG1        0.0846
     12 H          -2.2315   -0.9731    0.0000 H       1  LIG1        0.0849
     13 H          -0.5631   -1.9363    0.0000 H       1  LIG1        0.0656
@<TRIPOS>BOND
     1     1     2   ar
     2     2     3   ar
     3     3     4   ar
     4     4     5   ar
     5     5     6   ar
     6     6     7   ar
     7     7     8   ar
     8     3     8   ar
     9     8     9   ar
    10     1     9   ar
    11     1    10    1
    12     2    11    1
    13     6    12    1
    14     7    13    1
