@<TRIPOS>MOLECULE
Cn1cc2nccnc2nc1=O
 18 19 0 0 0
SMALL
GASTEIGER
Energy = 0

@<TRIPOS>ATOM
      1 C           1.7497    0.8514    0.0000 C.3     1  LIG1        0.0162
      2 N           1.0352    0.4389    0.0000 N.ar    1  LIG1       -0.3000
      3 C           0.3207    0.8514    0.0000 C.ar    1  LIG1        0.0381
      4 C          -0.3937    0.4389    0.0000 C.ar    1  LIG1        0.1242
      5 N          -1.1082    0.8514    0.0000 N.ar    1  LIG1       -0.2489
      6 C          -1.8227    0.4389    0.0000 C.ar    1  LIG1        0.0465
      7 C          -1.8227   -0.3861    0.0000 C.ar    1  LIG1        0.0481
      8 N          -1.1082   -0.7986    0.0000 N.ar    1  LIG1       -0.2327
      9 C          -0.3937   -0.3861    0.0000 C.ar    1  LIG1        0.1849
     10 N           0.3207   -0.7986    0.0000 N.ar    1  LIG1       -0.1716
     11 C           1.0352   -0.3861    0.0000 C.ar    1  LIG1        0.3502
     12 O           1.7497   -0.7986    0.0000 O.2     1  LIG1       -0.2444
     13 H           1.5420    1.9723    0.0000 H       1  LIG1        0.0457
     14 H           2.3707    0.5651   -0.9121 H       1  LIG1        0.0457
     15 H           2.3394    0.5796    0.9370 H       1  LIG1        0.0457
     16 H           0.3207    1.9529    0.0000 H       1  LIG1        0.0833
     17 H          -2.7766    0.9897    0.0000 H       1  LIG1        0.0845
     18 H          -2.7766   -0.9369    0.0000 H       1  LIG1        0.0846
@<TRIPOS>BOND
     1     1     2    1
     2     2     3   ar
     3     3     4   ar
     4     4     5   ar
     5     5     6   ar
     6     6     7   ar
     7     7     8   ar
     8     8     9   ar
     9     4     9   ar
    10     9    10   ar
    11    10    11   ar
    12     2    11   ar
    13    11    12    2
    14     1    13    1
    15     1    14    1
    16     1    15    1
    17     3    16    1
    18     6    17    1
    19     7    18    1
