@<TRIPOS>MOLECULE
Cn1ccc2n[nH]c(=O)nc12
 17 18 0 0 0
SMALL
GASTEIGER
Energy = 0

@<TRIPOS>ATOM
      1 C           1.3403   -1.2359    0.0000 C.3     1  LIG1        0.0133
      2 N           1.0854   -0.4513    0.0000 N.ar    1  LIG1       -0.3335
      3 C           1.5703    0.2162    0.0000 C.ar    1  LIG1        0.0083
      4 C           1.0854    0.8836    0.0000 C.ar    1  LIG1       -0.0148
      5 C           0.3008    0.6287    0.0000 C.ar    1  LIG1        0.1279
      6 N          -0.4137    1.0412    0.0000 N.ar    1  LIG1       -0.1666
      7 N          -1.1282    0.6287    0.0000 N.ar    1  LIG1       -0.2261
      8 C          -1.1282   -0.1963    0.0000 C.ar    1  LIG1        0.3639
      9 O          -1.8426   -0.6088    0.0000 O.2     1  LIG1       -0.2431
     10 N          -0.4137   -0.6088    0.0000 N.ar    1  LIG1       -0.1723
     11 C           0.3008   -0.1963    0.0000 C.ar    1  LIG1        0.1661
     12 H           2.4799   -1.2658    0.0000 H       1  LIG1        0.0456
     13 H           0.9311   -1.7838   -0.9121 H       1  LIG1        0.0456
     14 H           0.9518   -1.7561    0.9370 H       1  LIG1        0.0456
     15 H           2.6718    0.2162    0.0000 H       1  LIG1        0.0810
     16 H           1.4258    1.9312    0.0000 H       1  LIG1        0.0655
     17 H          -2.0657    1.1700    0.0000 H       1  LIG1        0.1937
@<TRIPOS>BOND
     1     1     2    1
     2     2     3   ar
     3     3     4   ar
     4     4     5   ar
     5     5     6   ar
     6     6     7   ar
     7     7     8   ar
     8     8     9    2
     9     8    10   ar
    10    10    11   ar
    11     2    11   ar
    12     5    11   ar
    13     1    12    1
    14     1    13    1
    15     1    14    1
    16     3    15    1
    17     4    16    1
    18     7    17    1
