@<TRIPOS>MOLECULE
Cn1ccc2c(=O)[nH]ncc12
 18 19 0 0 0
SMALL
GASTEIGER
Energy = 0

@<TRIPOS>ATOM
      1 C           1.1837   -1.5057    0.0000 C.3     1  LIG1        0.0119
      2 N           0.9287   -0.7211    0.0000 N.ar    1  LIG1       -0.3483
      3 C           1.4136   -0.0537    0.0000 C.ar    1  LIG1        0.0056
      4 C           0.9287    0.6138    0.0000 C.ar    1  LIG1       -0.0312
      5 C           0.1441    0.3588    0.0000 C.ar    1  LIG1        0.0670
      6 C           0.1441   -0.4662    0.0000 C.ar    1  LIG1        0.0741
      7 C          -0.5704   -0.8787    0.0000 C.ar    1  LIG1        0.0720
      8 N          -1.2848   -0.4662    0.0000 N.ar    1  LIG1       -0.1773
      9 N          -1.2848    0.3588    0.0000 N.ar    1  LIG1       -0.2426
     10 C          -0.5704    0.7713    0.0000 C.ar    1  LIG1        0.2739
     11 O          -0.5704    1.5963    0.0000 O.2     1  LIG1       -0.2657
     12 H           2.3233   -1.5355    0.0000 H       1  LIG1        0.0456
     13 H           0.7746   -2.0537   -0.9121 H       1  LIG1        0.0456
     14 H           0.7952   -2.0260    0.9370 H       1  LIG1        0.0456
     15 H           2.5151   -0.0537    0.0000 H       1  LIG1        0.0809
     16 H           1.2691    1.6614    0.0000 H       1  LIG1        0.0640
     17 H          -0.5704   -1.9802    0.0000 H       1  LIG1        0.0869
     18 H          -2.2223    0.9000    0.0000 H       1  LIG1        0.1921
@<TRIPOS>BOND
     1     1     2    1
     2     2     3   ar
     3     3     4   ar
     4     4     5   ar
     5     5     6   ar
     6     2     6   ar
     7     6     7   ar
     8     7     8   ar
     9     8     9   ar
    10     9    10   ar
    11     5    10   ar
    12    10    11    2
    13     1    12    1
    14     1    13    1
    15     1    14    1
    16     3    15    1
    17     4    16    1
    18     7    17    1
    19     9    18    1
