@<TRIPOS>MOLECULE
O=c1cc2sccc2n[nH]1
 14 15 0 0 0
SMALL
GASTEIGER
Energy = 0

@<TRIPOS>ATOM
      1 O           1.8719   -0.6622    0.0000 O.2     1  LIG1       -0.2664
      2 C           1.1574   -0.2497    0.0000 C.ar    1  LIG1        0.2658
      3 N           1.1574    0.5753    0.0000 N.ar    1  LIG1       -0.2426
      4 N           0.4429    0.9878    0.0000 N.ar    1  LIG1       -0.1704
      5 C          -0.2715    0.5753    0.0000 C.ar    1  LIG1        0.0984
      6 C          -1.0562    0.8302    0.0000 C.ar    1  LIG1       -0.0270
      7 C          -1.5411    0.1628    0.0000 C.ar    1  LIG1       -0.0216
      8 S          -1.0562   -0.5047    0.0000 S.2     1  LIG1       -0.0948
      9 C          -0.2715   -0.2497    0.0000 C.ar    1  LIG1        0.0444
     10 C           0.4429   -0.6622    0.0000 C.ar    1  LIG1        0.0199
     11 H           2.0949    1.1166    0.0000 H       1  LIG1        0.1921
     12 H          -1.3966    1.8778    0.0000 H       1  LIG1        0.0645
     13 H          -2.6426    0.1628    0.0000 H       1  LIG1        0.0694
     14 H           0.4429   -1.7637    0.0000 H       1  LIG1        0.0684
@<TRIPOS>BOND
     1     1     2    2
     2     2     3   ar
     3     3     4   ar
     4     4     5   ar
     5     5     6   ar
     6     6     7   ar
     7     7     8   ar
     8     8     9   ar
     9     5     9   ar
    10     9    10   ar
    11     2    10   ar
    12     3    11    1
    13     6    12    1
    14     7    13    1
    15    10    14    1
