@<TRIPOS>MOLECULE
c1nnc2ncncn12
 12 13 0 0 0
SMALL
GASTEIGER
Energy = 0

@<TRIPOS>ATOM
      1 C           1.2801    0.4012    0.0000 C.ar    1  LIG1        0.1215
      2 N           0.5657    0.8137    0.0000 N.ar    1  LIG1       -0.1990
      3 C          -0.1488    0.4012    0.0000 C.ar    1  LIG1        0.2578
      4 N          -0.9334    0.6562    0.0000 N.ar    1  LIG1       -0.1086
      5 N          -1.4183   -0.0113    0.0000 N.ar    1  LIG1       -0.1356
      6 C          -0.9334   -0.6787    0.0000 C.ar    1  LIG1        0.1265
      7 N          -0.1488   -0.4238    0.0000 N.ar    1  LIG1       -0.2562
      8 C           0.5657   -0.8363    0.0000 C.ar    1  LIG1        0.1057
      9 N           1.2801   -0.4238    0.0000 N.ar    1  LIG1       -0.2254
     10 H           2.2340    0.9519    0.0000 H       1  LIG1        0.1048
     11 H          -1.2738   -1.7263    0.0000 H       1  LIG1        0.1052
     12 H           0.5657   -1.9378    0.0000 H       1  LIG1        0.1034
@<TRIPOS>BOND
     1     1     2   ar
     2     2     3   ar
     3     3     4   ar
     4     4     5   ar
     5     5     6   ar
     6     6     7   ar
     7     3     7   ar
     8     7     8   ar
     9     8     9   ar
    10     1     9   ar
    11     1    10    1
    12     6    11    1
    13     8    12    1
