@<TRIPOS>MOLECULE
c1nncc2onnc12
 11 12 0 0 0
SMALL
GASTEIGER
Energy = 0

@<TRIPOS>ATOM
      1 O           0.9168   -0.6564    0.0000 O.2     1  LIG1       -0.3341
      2 N           1.4017    0.0111    0.0000 N.ar    1  LIG1        0.0349
      3 N           0.9168    0.6785    0.0000 N.ar    1  LIG1       -0.1093
      4 C           0.1321    0.4236    0.0000 C.ar    1  LIG1        0.1552
      5 C           0.1321   -0.4014    0.0000 C.ar    1  LIG1        0.2086
      6 C          -0.5823   -0.8139    0.0000 C.ar    1  LIG1        0.0970
      7 N          -1.2968   -0.4014    0.0000 N.ar    1  LIG1       -0.1538
      8 N          -1.2968    0.4236    0.0000 N.ar    1  LIG1       -0.1553
      9 C          -0.5823    0.8361    0.0000 C.ar    1  LIG1        0.0809
     10 H          -0.5823   -1.9154    0.0000 H       1  LIG1        0.0887
     11 H          -0.5823    1.9376    0.0000 H       1  LIG1        0.0872
@<TRIPOS>BOND
     1     1     2   ar
     2     2     3   ar
     3     3     4   ar
     4     4     5   ar
     5     1     5   ar
     6     5     6   ar
     7     6     7   ar
     8     7     8   ar
     9     8     9   ar
    10     4     9   ar
    11     6    10    1
    12     9    11    1
