@<TRIPOS>MOLECULE
Cn1ncc2nc[nH]c2c1=O
 17 18 0 0 0
SMALL
GASTEIGER
Energy = 0

@<TRIPOS>ATOM
      1 C          -1.7469   -0.5730    0.0000 C.3     1  LIG1        0.0340
      2 N          -1.0324   -0.1605    0.0000 N.ar    1  LIG1       -0.2308
      3 N          -1.0324    0.6645    0.0000 N.ar    1  LIG1       -0.1747
      4 C          -0.3179    1.0770    0.0000 C.ar    1  LIG1        0.0756
      5 C           0.3966    0.6645    0.0000 C.ar    1  LIG1        0.1138
      6 C           0.3966   -0.1605    0.0000 C.ar    1  LIG1        0.1343
      7 N           1.1812   -0.4155    0.0000 N.ar    1  LIG1       -0.3401
      8 C           1.6661    0.2520    0.0000 C.ar    1  LIG1        0.0946
      9 N           1.1812    0.9194    0.0000 N.ar    1  LIG1       -0.2342
     10 C          -0.3179   -0.5730    0.0000 C.ar    1  LIG1        0.2926
     11 O          -0.3179   -1.3980    0.0000 O.2     1  LIG1       -0.2639
     12 H          -2.6137    0.1674    0.0000 H       1  LIG1        0.0474
     13 H          -1.8095   -1.2540    0.9121 H       1  LIG1        0.0474
     14 H          -1.8063   -1.2196   -0.9370 H       1  LIG1        0.0474
     15 H          -0.3179    2.1785    0.0000 H       1  LIG1        0.0870
     16 H           1.5157   -1.4450    0.0000 H       1  LIG1        0.1670
     17 H           2.7676    0.2520    0.0000 H       1  LIG1        0.1027
@<TRIPOS>BOND
     1     1     2    1
     2     2     3   ar
     3     3     4   ar
     4     4     5   ar
     5     5     6   ar
     6     6     7   ar
     7     7     8   ar
     8     8     9   ar
     9     5     9   ar
    10     6    10   ar
    11     2    10   ar
    12    10    11    2
    13     1    12    1
    14     1    13    1
    15     1    14    1
    16     4    15    1
    17     7    16    1
    18     8    17    1
