@<TRIPOS>MOLECULE
Cn1ccc2nc(=O)ccc2c1
 20 21 0 0 0
SMALL
GASTEIGER
Energy = 0

@<TRIPOS>ATOM
      1 C           2.1902   -0.8520    0.0000 C.3     1  LIG1        0.0113
      2 N           1.4758   -0.4395    0.0000 N.ar    1  LIG1       -0.3556
      3 C           1.4758    0.3855    0.0000 C.ar    1  LIG1        0.0063
      4 C           0.7613    0.7980    0.0000 C.ar    1  LIG1       -0.0194
      5 C           0.0468    0.3855    0.0000 C.ar    1  LIG1        0.0777
      6 N          -0.6676    0.7980    0.0000 N.ar    1  LIG1       -0.2090
      7 C          -1.3821    0.3855    0.0000 C.ar    1  LIG1        0.2708
      8 O          -2.0966    0.7980    0.0000 O.2     1  LIG1       -0.2659
      9 C          -1.3821   -0.4395    0.0000 C.ar    1  LIG1        0.0053
     10 C          -0.6676   -0.8520    0.0000 C.ar    1  LIG1       -0.0460
     11 C           0.0468   -0.4395    0.0000 C.ar    1  LIG1        0.0168
     12 C           0.7613   -0.8520    0.0000 C.ar    1  LIG1        0.0134
     13 H           3.0571   -0.1117    0.0000 H       1  LIG1        0.0455
     14 H           2.2527   -1.5330   -0.9121 H       1  LIG1        0.0455
     15 H           2.2496   -1.4986    0.9370 H       1  LIG1        0.0455
     16 H           2.4297    0.9363    0.0000 H       1  LIG1        0.0809
     17 H           0.7613    1.8995    0.0000 H       1  LIG1        0.0653
     18 H          -2.3360   -0.9903    0.0000 H       1  LIG1        0.0672
     19 H          -0.6676   -1.9535    0.0000 H       1  LIG1        0.0626
     20 H           0.7613   -1.9535    0.0000 H       1  LIG1        0.0815
@<TRIPOS>BOND
     1     1     2    1
     2     2     3   ar
     3     3     4   ar
     4     4     5   ar
     5     5     6   ar
     6     6     7   ar
     7     7     8    2
     8     7     9   ar
     9     9    10   ar
    10    10    11   ar
    11     5    11   ar
    12    11    12   ar
    13     2    12   ar
    14     1    13    1
    15     1    14    1
    16     1    15    1
    17     3    16    1
    18     4    17    1
    19     9    18    1
    20    10    19    1
    21    12    20    1
