@<TRIPOS>MOLECULE
Cn1cnc2ccnnc2c1=O
 18 19 0 0 0
SMALL
GASTEIGER
Energy = 0

@<TRIPOS>ATOM
      1 C           1.9053   -0.5819    0.0000 C.3     1  LIG1        0.0161
      2 N           1.1908   -0.1694    0.0000 N.ar    1  LIG1       -0.3005
      3 C           1.1908    0.6556    0.0000 C.ar    1  LIG1        0.0991
      4 N           0.4763    1.0681    0.0000 N.ar    1  LIG1       -0.2353
      5 C          -0.2381    0.6556    0.0000 C.ar    1  LIG1        0.0994
      6 C          -0.9526    1.0681    0.0000 C.ar    1  LIG1       -0.0141
      7 C          -1.6671    0.6556    0.0000 C.ar    1  LIG1        0.0520
      8 N          -1.6671   -0.1694    0.0000 N.ar    1  LIG1       -0.1568
      9 N          -0.9526   -0.5819    0.0000 N.ar    1  LIG1       -0.1422
     10 C          -0.2381   -0.1694    0.0000 C.ar    1  LIG1        0.1756
     11 C           0.4763   -0.5819    0.0000 C.ar    1  LIG1        0.2815
     12 O           0.4763   -1.4069    0.0000 O.2     1  LIG1       -0.2652
     13 H           2.7721    0.1585    0.0000 H       1  LIG1        0.0457
     14 H           1.9679   -1.2629   -0.9121 H       1  LIG1        0.0457
     15 H           1.9647   -1.2285    0.9370 H       1  LIG1        0.0457
     16 H           2.1447    1.2064    0.0000 H       1  LIG1        0.1030
     17 H          -0.9526    2.1696    0.0000 H       1  LIG1        0.0655
     18 H          -2.6210    1.2064    0.0000 H       1  LIG1        0.0848
@<TRIPOS>BOND
     1     1     2    1
     2     2     3   ar
     3     3     4   ar
     4     4     5   ar
     5     5     6   ar
     6     6     7   ar
     7     7     8   ar
     8     8     9   ar
     9     9    10   ar
    10     5    10   ar
    11    10    11   ar
    12     2    11   ar
    13    11    12    2
    14     1    13    1
    15     1    14    1
    16     1    15    1
    17     3    16    1
    18     6    17    1
    19     7    18    1
