@<TRIPOS>MOLECULE
O=c1[nH]nc2ccc(=O)[nH]n12
 15 16 0 0 0
SMALL
GASTEIGER
Energy = 0

@<TRIPOS>ATOM
      1 O           1.9248    0.5713    0.0000 O.2     1  LIG1       -0.2665
      2 C           1.2103    0.1588    0.0000 C.ar    1  LIG1        0.2637
      3 N           0.4958    0.5713    0.0000 N.ar    1  LIG1       -0.2536
      4 N          -0.2187    0.1588    0.0000 N.ar    1  LIG1       -0.1809
      5 C          -1.0033    0.4137    0.0000 C.ar    1  LIG1        0.3634
      6 O          -1.2582    1.1983    0.0000 O.2     1  LIG1       -0.2431
      7 N          -1.4882   -0.2537    0.0000 N.ar    1  LIG1       -0.2248
      8 N          -1.0033   -0.9212    0.0000 N.ar    1  LIG1       -0.1501
      9 C          -0.2187   -0.6662    0.0000 C.ar    1  LIG1        0.1772
     10 C           0.4958   -1.0787    0.0000 C.ar    1  LIG1       -0.0105
     11 C           1.2103   -0.6662    0.0000 C.ar    1  LIG1        0.0077
     12 H           0.4958    1.6538    0.0000 H       1  LIG1        0.1907
     13 H          -2.5707   -0.2537    0.0000 H       1  LIG1        0.1937
     14 H           0.4958   -2.1802    0.0000 H       1  LIG1        0.0657
     15 H           2.1642   -1.2170    0.0000 H       1  LIG1        0.0673
@<TRIPOS>BOND
     1     1     2    2
     2     2     3   ar
     3     3     4   ar
     4     4     5   ar
     5     5     6    2
     6     5     7   ar
     7     7     8   ar
     8     8     9   ar
     9     4     9   ar
    10     9    10   ar
    11    10    11   ar
    12     2    11   ar
    13     3    12    1
    14     7    13    1
    15    10    14    1
    16    11    15    1
