@<TRIPOS>MOLECULE
c1nnc2[nH]cccc12
 14 15 0 0 0
SMALL
GASTEIGER
Energy = 0

@<TRIPOS>ATOM
      1 N           0.5855   -0.7989    0.0000 N.ar    1  LIG1       -0.3444
      2 C           1.2999   -0.3864    0.0000 C.ar    1  LIG1        0.0035
      3 C           1.2999    0.4386    0.0000 C.ar    1  LIG1       -0.0450
      4 C           0.5855    0.8511    0.0000 C.ar    1  LIG1       -0.0482
      5 C          -0.1290    0.4386    0.0000 C.ar    1  LIG1        0.0388
      6 C          -0.9136    0.6936    0.0000 C.ar    1  LIG1        0.0607
      7 N          -1.3986    0.0261    0.0000 N.ar    1  LIG1       -0.1550
      8 N          -0.9136   -0.6413    0.0000 N.ar    1  LIG1       -0.1310
      9 C          -0.1290   -0.3864    0.0000 C.ar    1  LIG1        0.1618
     10 H           0.5855   -1.8814    0.0000 H       1  LIG1        0.1668
     11 H           2.2538   -0.9371    0.0000 H       1  LIG1        0.0807
     12 H           2.2538    0.9893    0.0000 H       1  LIG1        0.0632
     13 H           0.5855    1.9526    0.0000 H       1  LIG1        0.0626
     14 H          -1.2539    1.7412    0.0000 H       1  LIG1        0.0855
@<TRIPOS>BOND
     1     1     2   ar
     2     2     3   ar
     3     3     4   ar
     4     4     5   ar
     5     5     6   ar
     6     6     7   ar
     7     7     8   ar
     8     8     9   ar
     9     1     9   ar
    10     5     9   ar
    11     1    10    1
    12     2    11    1
    13     3    12    1
    14     4    13    1
    15     6    14    1
