@<TRIPOS>MOLECULE
Cn1c(=O)ncc2cnsc12
 16 17 0 0 0
SMALL
GASTEIGER
Energy = 0

@<TRIPOS>ATOM
      1 C          -0.4291   -1.3587    0.0000 C.3     1  LIG1        0.0172
      2 N          -0.4291   -0.5337    0.0000 N.ar    1  LIG1       -0.2880
      3 C          -1.1436   -0.1212    0.0000 C.ar    1  LIG1        0.3490
      4 O          -1.8580   -0.5337    0.0000 O.2     1  LIG1       -0.2445
      5 N          -1.1436    0.7038    0.0000 N.ar    1  LIG1       -0.2007
      6 C          -0.4291    1.1163    0.0000 C.ar    1  LIG1        0.0442
      7 C           0.2854    0.7038    0.0000 C.ar    1  LIG1        0.0438
      8 C           0.2854   -0.1212    0.0000 C.ar    1  LIG1        0.1123
      9 S           1.0700   -0.3762    0.0000 S.2     1  LIG1        0.0299
     10 N           1.5549    0.2913    0.0000 N.ar    1  LIG1       -0.2161
     11 C           1.0700    0.9587    0.0000 C.ar    1  LIG1        0.0473
     12 H          -1.5037   -1.7392    0.0000 H       1  LIG1        0.0457
     13 H           0.1294   -1.7534    0.9121 H       1  LIG1        0.0457
     14 H           0.1011   -1.7334   -0.9370 H       1  LIG1        0.0457
     15 H          -0.4291    2.2178    0.0000 H       1  LIG1        0.0838
     16 H           1.4104    2.0063    0.0000 H       1  LIG1        0.0844
@<TRIPOS>BOND
     1     1     2    1
     2     2     3   ar
     3     3     4    2
     4     3     5   ar
     5     5     6   ar
     6     6     7   ar
     7     7     8   ar
     8     2     8   ar
     9     8     9   ar
    10     9    10   ar
    11    10    11   ar
    12     7    11   ar
    13     1    12    1
    14     1    13    1
    15     1    14    1
    16     6    15    1
    17    11    16    1
