@<TRIPOS>MOLECULE
c1n[nH]c2ncncc12
 13 14 0 0 0
SMALL
GASTEIGER
Energy = 0

@<TRIPOS>ATOM
      1 N           0.9360   -0.6489    0.0000 N.ar    1  LIG1       -0.2601
      2 N           1.4209    0.0186    0.0000 N.ar    1  LIG1       -0.1798
      3 C           0.9360    0.6860    0.0000 C.ar    1  LIG1        0.0599
      4 C           0.1514    0.4311    0.0000 C.ar    1  LIG1        0.0564
      5 C          -0.5631    0.8436    0.0000 C.ar    1  LIG1        0.0415
      6 N          -1.2776    0.4311    0.0000 N.ar    1  LIG1       -0.2429
      7 C          -1.2776   -0.3939    0.0000 C.ar    1  LIG1        0.1183
      8 N          -0.5631   -0.8064    0.0000 N.ar    1  LIG1       -0.2165
      9 C           0.1514   -0.3939    0.0000 C.ar    1  LIG1        0.1588
     10 H           1.2705   -1.6784    0.0000 H       1  LIG1        0.1905
     11 H           1.2764    1.7336    0.0000 H       1  LIG1        0.0855
     12 H          -0.5631    1.9451    0.0000 H       1  LIG1        0.0838
     13 H          -2.2315   -0.9447    0.0000 H       1  LIG1        0.1047
@<TRIPOS>BOND
     1     1     2   ar
     2     2     3   ar
     3     3     4   ar
     4     4     5   ar
     5     5     6   ar
     6     6     7   ar
     7     7     8   ar
     8     8     9   ar
     9     1     9   ar
    10     4     9   ar
    11     1    10    1
    12     3    11    1
    13     5    12    1
    14     7    13    1
