@<TRIPOS>MOLECULE
Cn1cc2cncnc2cc1=O
 19 20 0 0 0
SMALL
GASTEIGER
Energy = 0

@<TRIPOS>ATOM
      1 C           1.7631    0.8464    0.0000 C.3     1  LIG1        0.0147
      2 N           1.0486    0.4339    0.0000 N.ar    1  LIG1       -0.3175
      3 C           0.3341    0.8464    0.0000 C.ar    1  LIG1        0.0182
      4 C          -0.3803    0.4339    0.0000 C.ar    1  LIG1        0.0348
      5 C          -1.0948    0.8464    0.0000 C.ar    1  LIG1        0.0399
      6 N          -1.8093    0.4339    0.0000 N.ar    1  LIG1       -0.2430
      7 C          -1.8093   -0.3911    0.0000 C.ar    1  LIG1        0.1166
      8 N          -1.0948   -0.8036    0.0000 N.ar    1  LIG1       -0.2352
      9 C          -0.3803   -0.3911    0.0000 C.ar    1  LIG1        0.0807
     10 C           0.3341   -0.8036    0.0000 C.ar    1  LIG1        0.0290
     11 C           1.0486   -0.3911    0.0000 C.ar    1  LIG1        0.2531
     12 O           1.7631   -0.8036    0.0000 O.2     1  LIG1       -0.2676
     13 H           1.5554    1.9673    0.0000 H       1  LIG1        0.0457
     14 H           2.3841    0.5601   -0.9121 H       1  LIG1        0.0457
     15 H           2.3528    0.5746    0.9370 H       1  LIG1        0.0457
     16 H           0.3341    1.9479    0.0000 H       1  LIG1        0.0817
     17 H          -1.0948    1.9479    0.0000 H       1  LIG1        0.0837
     18 H          -2.7632   -0.9419    0.0000 H       1  LIG1        0.1047
     19 H           0.3341   -1.9051    0.0000 H       1  LIG1        0.0693
@<TRIPOS>BOND
     1     1     2    1
     2     2     3   ar
     3     3     4   ar
     4     4     5   ar
     5     5     6   ar
     6     6     7   ar
     7     7     8   ar
     8     8     9   ar
     9     4     9   ar
    10     9    10   ar
    11    10    11   ar
    12     2    11   ar
    13    11    12    2
    14     1    13    1
    15     1    14    1
    16     1    15    1
    17     3    16    1
    18     5    17    1
    19     7    18    1
    20    10    19    1
