@<TRIPOS>MOLECULE
Cn1ccncc1=O
 14 14 0 0 0
SMALL
GASTEIGER
Energy = 0

@<TRIPOS>ATOM
      1 C           0.2197   -1.3327    0.0000 C.3     1  LIG1        0.0148
      2 N           0.2197   -0.5077    0.0000 N.ar    1  LIG1       -0.3156
      3 C           0.9342   -0.0952    0.0000 C.ar    1  LIG1        0.0257
      4 C           0.9342    0.7298    0.0000 C.ar    1  LIG1        0.0439
      5 N           0.2197    1.1423    0.0000 N.ar    1  LIG1       -0.2564
      6 C          -0.4948    0.7298    0.0000 C.ar    1  LIG1        0.0920
      7 C          -0.4948   -0.0952    0.0000 C.ar    1  LIG1        0.2692
      8 O          -1.2093   -0.5077    0.0000 O.2     1  LIG1       -0.2661
      9 H           1.2943   -1.7132    0.0000 H       1  LIG1        0.0457
     10 H          -0.3388   -1.7274   -0.9121 H       1  LIG1        0.0457
     11 H          -0.3105   -1.7074    0.9370 H       1  LIG1        0.0457
     12 H           1.8881   -0.6460    0.0000 H       1  LIG1        0.0825
     13 H           1.8881    1.2806    0.0000 H       1  LIG1        0.0844
     14 H          -1.4487    1.2806    0.0000 H       1  LIG1        0.0885
@<TRIPOS>BOND
     1     1     2    1
     2     2     3   ar
     3     3     4   ar
     4     4     5   ar
     5     5     6   ar
     6     6     7   ar
     7     2     7   ar
     8     7     8    2
     9     1     9    1
    10     1    10    1
    11     1    11    1
    12     3    12    1
    13     4    13    1
    14     6    14    1
