@<TRIPOS>MOLECULE
c1nnc2cn[nH]cc12
 13 14 0 0 0
SMALL
GASTEIGER
Energy = 0

@<TRIPOS>ATOM
      1 N           1.2653    0.4240    0.0000 N.ar    1  LIG1       -0.2840
      2 C           0.5508    0.8365    0.0000 C.ar    1  LIG1        0.0316
      3 C          -0.1636    0.4240    0.0000 C.ar    1  LIG1        0.0409
      4 C          -0.9483    0.6789    0.0000 C.ar    1  LIG1        0.0606
      5 N          -1.4332    0.0115    0.0000 N.ar    1  LIG1       -0.1564
      6 N          -0.9483   -0.6560    0.0000 N.ar    1  LIG1       -0.1476
      7 C          -0.1636   -0.4010    0.0000 C.ar    1  LIG1        0.1158
      8 C           0.5508   -0.8135    0.0000 C.ar    1  LIG1        0.0755
      9 N           1.2653   -0.4010    0.0000 N.ar    1  LIG1       -0.1802
     10 H           2.2028    0.9653    0.0000 H       1  LIG1        0.1882
     11 H           0.5508    1.9380    0.0000 H       1  LIG1        0.0830
     12 H          -1.2887    1.7265    0.0000 H       1  LIG1        0.0855
     13 H           0.5508   -1.9150    0.0000 H       1  LIG1        0.0870
@<TRIPOS>BOND
     1     1     2   ar
     2     2     3   ar
     3     3     4   ar
     4     4     5   ar
     5     5     6   ar
     6     6     7   ar
     7     3     7   ar
     8     7     8   ar
     9     8     9   ar
    10     1     9   ar
    11     1    10    1
    12     2    11    1
    13     4    12    1
    14     8    13    1
