@<TRIPOS>MOLECULE
Cn1cnc(=O)c2oncc12
 16 17 0 0 0
SMALL
GASTEIGER
Energy = 0

@<TRIPOS>ATOM
      1 C          -0.4679   -1.7076    0.0000 C.3     1  LIG1        0.0134
      2 N          -0.4679   -0.8826    0.0000 N.ar    1  LIG1       -0.3304
      3 C          -1.1824   -0.4701    0.0000 C.ar    1  LIG1        0.1002
      4 N          -1.1824    0.3549    0.0000 N.ar    1  LIG1       -0.1961
      5 C          -0.4679    0.7674    0.0000 C.ar    1  LIG1        0.3187
      6 O          -0.4679    1.5924    0.0000 O.2     1  LIG1       -0.2616
      7 C           0.2466    0.3549    0.0000 C.ar    1  LIG1        0.2492
      8 C           0.2466   -0.4701    0.0000 C.ar    1  LIG1        0.1151
      9 C           1.0312   -0.7251    0.0000 C.ar    1  LIG1        0.0944
     10 N           1.5161   -0.0576    0.0000 N.ar    1  LIG1       -0.0837
     11 O           1.0312    0.6098    0.0000 O.2     1  LIG1       -0.3475
     12 H          -1.5425   -2.0881    0.0000 H       1  LIG1        0.0456
     13 H           0.0906   -2.1023    0.9121 H       1  LIG1        0.0456
     14 H           0.0623   -2.0823   -0.9370 H       1  LIG1        0.0456
     15 H          -2.1363   -1.0209    0.0000 H       1  LIG1        0.1030
     16 H           1.3716   -1.7727    0.0000 H       1  LIG1        0.0885
@<TRIPOS>BOND
     1     1     2    1
     2     2     3   ar
     3     3     4   ar
     4     4     5   ar
     5     5     6    2
     6     5     7   ar
     7     7     8   ar
     8     2     8   ar
     9     8     9   ar
    10     9    10   ar
    11    10    11   ar
    12     7    11   ar
    13     1    12    1
    14     1    13    1
    15     1    14    1
    16     3    15    1
    17     9    16    1
