@<TRIPOS>MOLECULE
O=c1[nH]c2ccccc2o1
 15 16 0 0 0
SMALL
GASTEIGER
Energy = 0

@<TRIPOS>ATOM
      1 O           1.9345    0.0102    0.0000 O.2     1  LIG1       -0.2229
      2 C           1.1095    0.0102    0.0000 C.ar    1  LIG1        0.4186
      3 N           0.6246    0.6777    0.0000 N.ar    1  LIG1       -0.2880
      4 C          -0.1600    0.4227    0.0000 C.ar    1  LIG1        0.0873
      5 C          -0.8745    0.8352    0.0000 C.ar    1  LIG1       -0.0346
      6 C          -1.5890    0.4227    0.0000 C.ar    1  LIG1       -0.0596
      7 C          -1.5890   -0.4023    0.0000 C.ar    1  LIG1       -0.0582
      8 C          -0.8745   -0.8148    0.0000 C.ar    1  LIG1       -0.0171
      9 C          -0.1600   -0.4023    0.0000 C.ar    1  LIG1        0.1568
     10 O           0.6246   -0.6572    0.0000 O.2     1  LIG1       -0.4076
     11 H           0.9591    1.7072    0.0000 H       1  LIG1        0.1721
     12 H          -0.8745    1.9367    0.0000 H       1  LIG1        0.0639
     13 H          -2.5429    0.9735    0.0000 H       1  LIG1        0.0618
     14 H          -2.5429   -0.9531    0.0000 H       1  LIG1        0.0619
     15 H          -0.8745   -1.9163    0.0000 H       1  LIG1        0.0655
@<TRIPOS>BOND
     1     1     2    2
     2     2     3   ar
     3     3     4   ar
     4     4     5   ar
     5     5     6   ar
     6     6     7   ar
     7     7     8   ar
     8     8     9   ar
     9     4     9   ar
    10     9    10   ar
    11     2    10   ar
    12     3    11    1
    13     5    12    1
    14     6    13    1
    15     7    14    1
    16     8    15    1
