@<TRIPOS>MOLECULE
c1cc2ocnn2c1
 12 13 0 0 0
SMALL
GASTEIGER
Energy = 0

@<TRIPOS>ATOM
      1 O           0.7395   -0.6626    0.0000 O.2     1  LIG1       -0.4250
      2 C           1.2244    0.0049    0.0000 C.ar    1  LIG1        0.2030
      3 N           0.7395    0.6723    0.0000 N.ar    1  LIG1       -0.1338
      4 N          -0.0451    0.4174    0.0000 N.ar    1  LIG1       -0.2046
      5 C          -0.8297    0.6723    0.0000 C.ar    1  LIG1        0.0331
      6 C          -1.3147    0.0049    0.0000 C.ar    1  LIG1       -0.0384
      7 C          -0.8297   -0.6626    0.0000 C.ar    1  LIG1        0.0019
      8 C          -0.0451   -0.4076    0.0000 C.ar    1  LIG1        0.2231
      9 H           2.3259    0.0049    0.0000 H       1  LIG1        0.1272
     10 H          -1.1700    1.7199    0.0000 H       1  LIG1        0.0831
     11 H          -2.4162    0.0049    0.0000 H       1  LIG1        0.0634
     12 H          -1.1700   -1.7102    0.0000 H       1  LIG1        0.0671
@<TRIPOS>BOND
     1     1     2   ar
     2     2     3   ar
     3     3     4   ar
     4     4     5   ar
     5     5     6   ar
     6     6     7   ar
     7     7     8   ar
     8     1     8   ar
     9     4     8   ar
    10     2     9    1
    11     5    10    1
    12     6    11    1
    13     7    12    1
