@<TRIPOS>MOLECULE
O=c1cncc2ccccn12
 17 18 0 0 0
SMALL
GASTEIGER
Energy = 0

@<TRIPOS>ATOM
      1 O           0.6125   -1.4616    0.0000 O.2     1  LIG1       -0.2657
      2 C           0.6125   -0.6366    0.0000 C.ar    1  LIG1        0.2739
      3 C           1.3270   -0.2241    0.0000 C.ar    1  LIG1        0.0924
      4 N           1.3270    0.6009    0.0000 N.ar    1  LIG1       -0.2558
      5 C           0.6125    1.0134    0.0000 C.ar    1  LIG1        0.0516
      6 C          -0.1020    0.6009    0.0000 C.ar    1  LIG1        0.0675
      7 C          -0.8164    1.0134    0.0000 C.ar    1  LIG1       -0.0362
      8 C          -1.5309    0.6009    0.0000 C.ar    1  LIG1       -0.0584
      9 C          -1.5309   -0.2241    0.0000 C.ar    1  LIG1       -0.0450
     10 C          -0.8164   -0.6366    0.0000 C.ar    1  LIG1        0.0133
     11 N          -0.1020   -0.2241    0.0000 N.ar    1  LIG1       -0.2815
     12 H           2.2809   -0.7749    0.0000 H       1  LIG1        0.0885
     13 H           0.6125    2.1149    0.0000 H       1  LIG1        0.0851
     14 H          -0.8164    2.1149    0.0000 H       1  LIG1        0.0639
     15 H          -2.4848    1.1517    0.0000 H       1  LIG1        0.0619
     16 H          -2.4848   -0.7749    0.0000 H       1  LIG1        0.0632
     17 H          -0.8164   -1.7381    0.0000 H       1  LIG1        0.0814
@<TRIPOS>BOND
     1     1     2    2
     2     2     3   ar
     3     3     4   ar
     4     4     5   ar
     5     5     6   ar
     6     6     7   ar
     7     7     8   ar
     8     8     9   ar
     9     9    10   ar
    10    10    11   ar
    11     2    11   ar
    12     6    11   ar
    13     3    12    1
    14     5    13    1
    15     7    14    1
    16     8    15    1
    17     9    16    1
    18    10    17    1
