@<TRIPOS>MOLECULE
O=c1ccnc2nnccn12
 15 16 0 0 0
SMALL
GASTEIGER
Energy = 0

@<TRIPOS>ATOM
      1 O           0.6549   -1.4896    0.0000 O.2     1  LIG1       -0.2672
      2 C           0.6549   -0.6646    0.0000 C.ar    1  LIG1        0.2595
      3 C           1.3694   -0.2521    0.0000 C.ar    1  LIG1        0.0216
      4 C           1.3694    0.5729    0.0000 C.ar    1  LIG1        0.0366
      5 N           0.6549    0.9854    0.0000 N.ar    1  LIG1       -0.2188
      6 C          -0.0595    0.5729    0.0000 C.ar    1  LIG1        0.2568
      7 N          -0.7740    0.9854    0.0000 N.ar    1  LIG1       -0.1100
      8 N          -1.4885    0.5729    0.0000 N.ar    1  LIG1       -0.1527
      9 C          -1.4885   -0.2521    0.0000 C.ar    1  LIG1        0.0667
     10 C          -0.7740   -0.6646    0.0000 C.ar    1  LIG1        0.0359
     11 N          -0.0595   -0.2521    0.0000 N.ar    1  LIG1       -0.2496
     12 H           2.3233   -0.8029    0.0000 H       1  LIG1        0.0687
     13 H           2.3233    1.1237    0.0000 H       1  LIG1        0.0832
     14 H          -2.4424   -0.8029    0.0000 H       1  LIG1        0.0863
     15 H          -0.7740   -1.7661    0.0000 H       1  LIG1        0.0831
@<TRIPOS>BOND
     1     1     2    2
     2     2     3   ar
     3     3     4   ar
     4     4     5   ar
     5     5     6   ar
     6     6     7   ar
     7     7     8   ar
     8     8     9   ar
     9     9    10   ar
    10    10    11   ar
    11     2    11   ar
    12     6    11   ar
    13     3    12    1
    14     4    13    1
    15     9    14    1
    16    10    15    1
