@<TRIPOS>MOLECULE
O=c1ccn2[nH]ccc2n1
 15 16 0 0 0
SMALL
GASTEIGER
Energy = 0

@<TRIPOS>ATOM
      1 O           1.7472   -0.7274    0.0000 O.2     1  LIG1       -0.2658
      2 C           1.0327   -0.3149    0.0000 C.ar    1  LIG1        0.2735
      3 C           1.0327    0.5101    0.0000 C.ar    1  LIG1        0.0228
      4 C           0.3182    0.9226    0.0000 C.ar    1  LIG1        0.0345
      5 N          -0.3962    0.5101    0.0000 N.ar    1  LIG1       -0.2443
      6 N          -1.1809    0.7650    0.0000 N.ar    1  LIG1       -0.2990
      7 C          -1.6658    0.0976    0.0000 C.ar    1  LIG1        0.0229
      8 C          -1.1809   -0.5699    0.0000 C.ar    1  LIG1        0.0000
      9 C          -0.3962   -0.3149    0.0000 C.ar    1  LIG1        0.1573
     10 N           0.3182   -0.7274    0.0000 N.ar    1  LIG1       -0.1899
     11 H           1.9866    1.0609    0.0000 H       1  LIG1        0.0687
     12 H           0.3182    2.0241    0.0000 H       1  LIG1        0.0832
     13 H          -1.5154    1.7945    0.0000 H       1  LIG1        0.1867
     14 H          -2.7673    0.0976    0.0000 H       1  LIG1        0.0824
     15 H          -1.5213   -1.6175    0.0000 H       1  LIG1        0.0670
@<TRIPOS>BOND
     1     1     2    2
     2     2     3   ar
     3     3     4   ar
     4     4     5   ar
     5     5     6   ar
     6     6     7   ar
     7     7     8   ar
     8     8     9   ar
     9     5     9   ar
    10     9    10   ar
    11     2    10   ar
    12     3    11    1
    13     4    12    1
    14     6    13    1
    15     7    14    1
    16     8    15    1
