@<TRIPOS>MOLECULE
O=c1ccc2nc[nH]c2[nH]1
 15 16 0 0 0
SMALL
GASTEIGER
Energy = 0

@<TRIPOS>ATOM
      1 O          -1.7592    0.7109    0.0000 O.2     1  LIG1       -0.2679
      2 C          -1.0447    0.2984    0.0000 C.ar    1  LIG1        0.2503
      3 N          -0.3303    0.7109    0.0000 N.ar    1  LIG1       -0.3072
      4 C           0.3842    0.2984    0.0000 C.ar    1  LIG1        0.1384
      5 C           0.3842   -0.5266    0.0000 C.ar    1  LIG1        0.1060
      6 C          -0.3303   -0.9391    0.0000 C.ar    1  LIG1       -0.0276
      7 C          -1.0447   -0.5266    0.0000 C.ar    1  LIG1        0.0049
      8 N           1.1688   -0.7816    0.0000 N.ar    1  LIG1       -0.2344
      9 C           1.6538   -0.1141    0.0000 C.ar    1  LIG1        0.0955
     10 N           1.1688    0.5533    0.0000 N.ar    1  LIG1       -0.3307
     11 H          -0.3303    1.7934    0.0000 H       1  LIG1        0.1703
     12 H          -0.3303   -2.0406    0.0000 H       1  LIG1        0.0642
     13 H          -1.9986   -1.0773    0.0000 H       1  LIG1        0.0672
     14 H           2.7553   -0.1141    0.0000 H       1  LIG1        0.1027
     15 H           1.5033    1.5828    0.0000 H       1  LIG1        0.1682
@<TRIPOS>BOND
     1     1     2    2
     2     2     3   ar
     3     3     4   ar
     4     4     5   ar
     5     5     6   ar
     6     6     7   ar
     7     2     7   ar
     8     5     8   ar
     9     8     9   ar
    10     9    10   ar
    11     4    10   ar
    12     3    11    1
    13     6    12    1
    14     7    13    1
    15     9    14    1
    16    10    15    1
