@<TRIPOS>MOLECULE
c1cc2ccccc2o1
 15 16 0 0 0
SMALL
GASTEIGER
Energy = 0

@<TRIPOS>ATOM
      1 O           0.9119   -0.6437    0.0000 O.2     1  LIG1       -0.4629
      2 C           1.3968    0.0238    0.0000 C.ar    1  LIG1        0.0931
      3 C           0.9119    0.6912    0.0000 C.ar    1  LIG1       -0.0161
      4 C           0.1272    0.4363    0.0000 C.ar    1  LIG1        0.0201
      5 C          -0.5872    0.8488    0.0000 C.ar    1  LIG1       -0.0510
      6 C          -1.3017    0.4363    0.0000 C.ar    1  LIG1       -0.0610
      7 C          -1.3017   -0.3887    0.0000 C.ar    1  LIG1       -0.0582
      8 C          -0.5872   -0.8012    0.0000 C.ar    1  LIG1       -0.0188
      9 C           0.1272   -0.3887    0.0000 C.ar    1  LIG1        0.1348
     10 H           2.4983    0.0238    0.0000 H       1  LIG1        0.1029
     11 H           1.2523    1.7388    0.0000 H       1  LIG1        0.0655
     12 H          -0.5872    1.9503    0.0000 H       1  LIG1        0.0625
     13 H          -2.2556    0.9871    0.0000 H       1  LIG1        0.0618
     14 H          -2.2556   -0.9395    0.0000 H       1  LIG1        0.0619
     15 H          -0.5872   -1.9027    0.0000 H       1  LIG1        0.0654
@<TRIPOS>BOND
     1     1     2   ar
     2     2     3   ar
     3     3     4   ar
     4     4     5   ar
     5     5     6   ar
     6     6     7   ar
     7     7     8   ar
     8     8     9   ar
     9     1     9   ar
    10     4     9   ar
    11     2    10    1
    12     3    11    1
    13     5    12    1
    14     6    13    1
    15     7    14    1
    16     8    15    1
