@<TRIPOS>MOLECULE
O=c1nccc2ccncn12
 16 17 0 0 0
SMALL
GASTEIGER
Energy = 0

@<TRIPOS>ATOM
      1 O           0.6340   -1.4468    0.0000 O.2     1  LIG1       -0.2441
      2 C           0.6340   -0.6218    0.0000 C.ar    1  LIG1        0.3540
      3 N           1.3485   -0.2093    0.0000 N.ar    1  LIG1       -0.2010
      4 C           1.3485    0.6157    0.0000 C.ar    1  LIG1        0.0350
      5 C           0.6340    1.0282    0.0000 C.ar    1  LIG1       -0.0193
      6 C          -0.0804    0.6157    0.0000 C.ar    1  LIG1        0.0552
      7 C          -0.7949    1.0282    0.0000 C.ar    1  LIG1       -0.0195
      8 C          -1.5094    0.6157    0.0000 C.ar    1  LIG1        0.0312
      9 N          -1.5094   -0.2093    0.0000 N.ar    1  LIG1       -0.2450
     10 C          -0.7949   -0.6218    0.0000 C.ar    1  LIG1        0.1045
     11 N          -0.0804   -0.2093    0.0000 N.ar    1  LIG1       -0.2513
     12 H           2.3024    1.1665    0.0000 H       1  LIG1        0.0832
     13 H           0.6340    2.1297    0.0000 H       1  LIG1        0.0653
     14 H          -0.7949    2.1297    0.0000 H       1  LIG1        0.0653
     15 H          -2.4633    1.1665    0.0000 H       1  LIG1        0.0831
     16 H          -0.7949   -1.7233    0.0000 H       1  LIG1        0.1033
@<TRIPOS>BOND
     1     1     2    2
     2     2     3   ar
     3     3     4   ar
     4     4     5   ar
     5     5     6   ar
     6     6     7   ar
     7     7     8   ar
     8     8     9   ar
     9     9    10   ar
    10    10    11   ar
    11     2    11   ar
    12     6    11   ar
    13     4    12    1
    14     5    13    1
    15     7    14    1
    16     8    15    1
    17    10    16    1
