@<TRIPOS>MOLECULE
O=c1nc2cnccc2c[nH]1
 16 17 0 0 0
SMALL
GASTEIGER
Energy = 0

@<TRIPOS>ATOM
      1 O           1.8920   -0.7205    0.0000 O.2     1  LIG1       -0.2447
      2 C           1.1776   -0.3080    0.0000 C.ar    1  LIG1        0.3464
      3 N           1.1776    0.5170    0.0000 N.ar    1  LIG1       -0.3124
      4 C           0.4631    0.9295    0.0000 C.ar    1  LIG1        0.0157
      5 C          -0.2514    0.5170    0.0000 C.ar    1  LIG1        0.0195
      6 C          -0.9658    0.9295    0.0000 C.ar    1  LIG1       -0.0330
      7 C          -1.6803    0.5170    0.0000 C.ar    1  LIG1        0.0283
      8 N          -1.6803   -0.3080    0.0000 N.ar    1  LIG1       -0.2611
      9 C          -0.9658   -0.7205    0.0000 C.ar    1  LIG1        0.0537
     10 C          -0.2514   -0.3080    0.0000 C.ar    1  LIG1        0.0958
     11 N           0.4631   -0.7205    0.0000 N.ar    1  LIG1       -0.1916
     12 H           2.1151    1.0583    0.0000 H       1  LIG1        0.1699
     13 H           0.4631    2.0310    0.0000 H       1  LIG1        0.0815
     14 H          -0.9658    2.0310    0.0000 H       1  LIG1        0.0640
     15 H          -2.6342    1.0678    0.0000 H       1  LIG1        0.0830
     16 H          -0.9658   -1.8220    0.0000 H       1  LIG1        0.0851
@<TRIPOS>BOND
     1     1     2    2
     2     2     3   ar
     3     3     4   ar
     4     4     5   ar
     5     5     6   ar
     6     6     7   ar
     7     7     8   ar
     8     8     9   ar
     9     9    10   ar
    10     5    10   ar
    11    10    11   ar
    12     2    11   ar
    13     3    12    1
    14     4    13    1
    15     6    14    1
    16     7    15    1
    17     9    16    1
