@<TRIPOS>MOLECULE
O=c1cc2ccncn2[nH]1
 15 16 0 0 0
SMALL
GASTEIGER
Energy = 0

@<TRIPOS>ATOM
      1 O           1.9805   -0.0229    0.0000 O.2     1  LIG1       -0.2664
      2 C           1.1555   -0.0229    0.0000 C.ar    1  LIG1        0.2655
      3 N           0.6706    0.6445    0.0000 N.ar    1  LIG1       -0.2578
      4 N          -0.1140    0.3896    0.0000 N.ar    1  LIG1       -0.2412
      5 C          -0.8285    0.8021    0.0000 C.ar    1  LIG1        0.1160
      6 N          -1.5430    0.3896    0.0000 N.ar    1  LIG1       -0.2437
      7 C          -1.5430   -0.4354    0.0000 C.ar    1  LIG1        0.0313
      8 C          -0.8285   -0.8479    0.0000 C.ar    1  LIG1       -0.0180
      9 C          -0.1140   -0.4354    0.0000 C.ar    1  LIG1        0.0717
     10 C           0.6706   -0.6903    0.0000 C.ar    1  LIG1        0.0295
     11 H           1.0051    1.6740    0.0000 H       1  LIG1        0.1906
     12 H          -0.8285    1.9036    0.0000 H       1  LIG1        0.1047
     13 H          -2.4969   -0.9862    0.0000 H       1  LIG1        0.0831
     14 H          -0.8285   -1.9494    0.0000 H       1  LIG1        0.0654
     15 H           1.0110   -1.7379    0.0000 H       1  LIG1        0.0693
@<TRIPOS>BOND
     1     1     2    2
     2     2     3   ar
     3     3     4   ar
     4     4     5   ar
     5     5     6   ar
     6     6     7   ar
     7     7     8   ar
     8     8     9   ar
     9     4     9   ar
    10     9    10   ar
    11     2    10   ar
    12     3    11    1
    13     5    12    1
    14     7    13    1
    15     8    14    1
    16    10    15    1
