@<TRIPOS>MOLECULE
O=c1[nH]nc2ncccn12
 14 15 0 0 0
SMALL
GASTEIGER
Energy = 0

@<TRIPOS>ATOM
      1 O           1.0251   -1.2925    0.0000 O.2     1  LIG1       -0.2446
      2 C           0.7701   -0.5079    0.0000 C.ar    1  LIG1        0.3496
      3 N           1.2550    0.1596    0.0000 N.ar    1  LIG1       -0.2245
      4 N           0.7701    0.8270    0.0000 N.ar    1  LIG1       -0.1305
      5 C          -0.0145    0.5721    0.0000 C.ar    1  LIG1        0.2559
      6 N          -0.7290    0.9846    0.0000 N.ar    1  LIG1       -0.2189
      7 C          -1.4434    0.5721    0.0000 C.ar    1  LIG1        0.0328
      8 C          -1.4434   -0.2529    0.0000 C.ar    1  LIG1       -0.0267
      9 C          -0.7290   -0.6654    0.0000 C.ar    1  LIG1        0.0190
     10 N          -0.0145   -0.2529    0.0000 N.ar    1  LIG1       -0.2352
     11 H           2.3375    0.1596    0.0000 H       1  LIG1        0.1938
     12 H          -2.3973    1.1228    0.0000 H       1  LIG1        0.0831
     13 H          -2.3973   -0.8036    0.0000 H       1  LIG1        0.0647
     14 H          -0.7290   -1.7669    0.0000 H       1  LIG1        0.0816
@<TRIPOS>BOND
     1     1     2    2
     2     2     3   ar
     3     3     4   ar
     4     4     5   ar
     5     5     6   ar
     6     6     7   ar
     7     7     8   ar
     8     8     9   ar
     9     9    10   ar
    10     2    10   ar
    11     5    10   ar
    12     3    11    1
    13     7    12    1
    14     8    13    1
    15     9    14    1
