@<TRIPOS>MOLECULE
c1nc2ccncc2o1
 13 14 0 0 0
SMALL
GASTEIGER
Energy = 0

@<TRIPOS>ATOM
      1 O           0.9186   -0.6489    0.0000 O.2     1  LIG1       -0.4409
      2 C           1.4035    0.0186    0.0000 C.ar    1  LIG1        0.1832
      3 N           0.9186    0.6860    0.0000 N.ar    1  LIG1       -0.2160
      4 C           0.1339    0.4311    0.0000 C.ar    1  LIG1        0.1122
      5 C          -0.5805    0.8436    0.0000 C.ar    1  LIG1       -0.0145
      6 C          -1.2950    0.4311    0.0000 C.ar    1  LIG1        0.0298
      7 N          -1.2950   -0.3939    0.0000 N.ar    1  LIG1       -0.2595
      8 C          -0.5805   -0.8064    0.0000 C.ar    1  LIG1        0.0720
      9 C           0.1339   -0.3939    0.0000 C.ar    1  LIG1        0.1730
     10 H           2.5050    0.0186    0.0000 H       1  LIG1        0.1255
     11 H          -0.5805    1.9451    0.0000 H       1  LIG1        0.0655
     12 H          -2.2489    0.9819    0.0000 H       1  LIG1        0.0830
     13 H          -0.5805   -1.9079    0.0000 H       1  LIG1        0.0868
@<TRIPOS>BOND
     1     1     2   ar
     2     2     3   ar
     3     3     4   ar
     4     4     5   ar
     5     5     6   ar
     6     6     7   ar
     7     7     8   ar
     8     8     9   ar
     9     1     9   ar
    10     4     9   ar
    11     2    10    1
    12     5    11    1
    13     6    12    1
    14     8    13    1
