@<TRIPOS>MOLECULE
Cn1c(=O)ncc2nncnc12
 17 18 0 0 0
SMALL
GASTEIGER
Energy = 0

@<TRIPOS>ATOM
      1 C           0.4523   -1.4412    0.0000 C.3     1  LIG1        0.0182
      2 N           0.4523   -0.6162    0.0000 N.ar    1  LIG1       -0.2783
      3 C           1.1668   -0.2037    0.0000 C.ar    1  LIG1        0.3498
      4 O           1.8812   -0.6162    0.0000 O.2     1  LIG1       -0.2445
      5 N           1.1668    0.6213    0.0000 N.ar    1  LIG1       -0.1991
      6 C           0.4523    1.0338    0.0000 C.ar    1  LIG1        0.0637
      7 C          -0.2622    0.6213    0.0000 C.ar    1  LIG1        0.1467
      8 N          -0.9766    1.0338    0.0000 N.ar    1  LIG1       -0.1432
      9 N          -1.6911    0.6213    0.0000 N.ar    1  LIG1       -0.1370
     10 C          -1.6911   -0.2037    0.0000 C.ar    1  LIG1        0.1406
     11 N          -0.9766   -0.6162    0.0000 N.ar    1  LIG1       -0.2141
     12 C          -0.2622   -0.2037    0.0000 C.ar    1  LIG1        0.1677
     13 H           1.5269   -1.8217    0.0000 H       1  LIG1        0.0458
     14 H          -0.1062   -1.8359   -0.9121 H       1  LIG1        0.0458
     15 H          -0.0779   -1.8159    0.9370 H       1  LIG1        0.0458
     16 H           0.4523    2.1353    0.0000 H       1  LIG1        0.0855
     17 H          -2.6450   -0.7545    0.0000 H       1  LIG1        0.1066
@<TRIPOS>BOND
     1     1     2    1
     2     2     3   ar
     3     3     4    2
     4     3     5   ar
     5     5     6   ar
     6     6     7   ar
     7     7     8   ar
     8     8     9   ar
     9     9    10   ar
    10    10    11   ar
    11    11    12   ar
    12     2    12   ar
    13     7    12   ar
    14     1    13    1
    15     1    14    1
    16     1    15    1
    17     6    16    1
    18    10    17    1
