@<TRIPOS>MOLECULE
c1cc2cnccn2n1
 14 15 0 0 0
SMALL
GASTEIGER
Energy = 0

@<TRIPOS>ATOM
      1 C           1.2652    0.4008    0.0000 C.ar    1  LIG1        0.0457
      2 C           0.5507    0.8133    0.0000 C.ar    1  LIG1        0.0478
      3 N          -0.1637    0.4008    0.0000 N.ar    1  LIG1       -0.2369
      4 N          -0.9483    0.6558    0.0000 N.ar    1  LIG1       -0.1747
      5 C          -1.4333   -0.0117    0.0000 C.ar    1  LIG1        0.0504
      6 C          -0.9483   -0.6791    0.0000 C.ar    1  LIG1       -0.0150
      7 C          -0.1637   -0.4242    0.0000 C.ar    1  LIG1        0.0849
      8 C           0.5507   -0.8367    0.0000 C.ar    1  LIG1        0.0530
      9 N           1.2652   -0.4242    0.0000 N.ar    1  LIG1       -0.2597
     10 H           2.2191    0.9516    0.0000 H       1  LIG1        0.0845
     11 H           0.5507    1.9148    0.0000 H       1  LIG1        0.0846
     12 H          -2.5348   -0.0117    0.0000 H       1  LIG1        0.0848
     13 H          -1.2886   -1.7267    0.0000 H       1  LIG1        0.0655
     14 H           0.5507   -1.9382    0.0000 H       1  LIG1        0.0851
@<TRIPOS>BOND
     1     1     2   ar
     2     2     3   ar
     3     3     4   ar
     4     4     5   ar
     5     5     6   ar
     6     6     7   ar
     7     3     7   ar
     8     7     8   ar
     9     8     9   ar
    10     1     9   ar
    11     1    10    1
    12     2    11    1
    13     5    12    1
    14     6    13    1
    15     8    14    1
