@<TRIPOS>MOLECULE
O=c1[nH]cnc2ncnn12
 13 14 0 0 0
SMALL
GASTEIGER
Energy = 0

@<TRIPOS>ATOM
      1 O           0.4909   -1.4531    0.0000 O.2     1  LIG1       -0.2445
      2 C           0.4909   -0.6281    0.0000 C.ar    1  LIG1        0.3511
      3 N           1.2054   -0.2156    0.0000 N.ar    1  LIG1       -0.2969
      4 C           1.2054    0.6094    0.0000 C.ar    1  LIG1        0.1010
      5 N           0.4909    1.0219    0.0000 N.ar    1  LIG1       -0.2009
      6 C          -0.2235    0.6094    0.0000 C.ar    1  LIG1        0.2584
      7 N          -1.0081    0.8643    0.0000 N.ar    1  LIG1       -0.1973
      8 C          -1.4931    0.1969    0.0000 C.ar    1  LIG1        0.1407
      9 N          -1.0081   -0.4705    0.0000 N.ar    1  LIG1       -0.1479
     10 N          -0.2235   -0.2156    0.0000 N.ar    1  LIG1       -0.1446
     11 H           2.1429   -0.7569    0.0000 H       1  LIG1        0.1713
     12 H           2.1593    1.1602    0.0000 H       1  LIG1        0.1029
     13 H          -2.5946    0.1969    0.0000 H       1  LIG1        0.1066
@<TRIPOS>BOND
     1     1     2    2
     2     2     3   ar
     3     3     4   ar
     4     4     5   ar
     5     5     6   ar
     6     6     7   ar
     7     7     8   ar
     8     8     9   ar
     9     9    10   ar
    10     2    10   ar
    11     6    10   ar
    12     3    11    1
    13     4    12    1
    14     8    13    1
