@<TRIPOS>MOLECULE
c1[nH]nc2ncccc12
 14 15 0 0 0
SMALL
GASTEIGER
Energy = 0

@<TRIPOS>ATOM
      1 N           1.3986    0.0261    0.0000 N.ar    1  LIG1       -0.2821
      2 C           0.9136    0.6936    0.0000 C.ar    1  LIG1        0.0316
      3 C           0.1290    0.4386    0.0000 C.ar    1  LIG1        0.0383
      4 C          -0.5855    0.8511    0.0000 C.ar    1  LIG1       -0.0481
      5 C          -1.2999    0.4386    0.0000 C.ar    1  LIG1       -0.0428
      6 C          -1.2999   -0.3864    0.0000 C.ar    1  LIG1        0.0300
      7 N          -0.5855   -0.7989    0.0000 N.ar    1  LIG1       -0.2343
      8 C           0.1290   -0.3864    0.0000 C.ar    1  LIG1        0.1810
      9 N           0.9136   -0.6413    0.0000 N.ar    1  LIG1       -0.1538
     10 H           2.4811    0.0261    0.0000 H       1  LIG1        0.1883
     11 H           1.2539    1.7412    0.0000 H       1  LIG1        0.0830
     12 H          -0.5855    1.9526    0.0000 H       1  LIG1        0.0626
     13 H          -2.2538    0.9893    0.0000 H       1  LIG1        0.0633
     14 H          -2.2538   -0.9371    0.0000 H       1  LIG1        0.0830
@<TRIPOS>BOND
     1     1     2   ar
     2     2     3   ar
     3     3     4   ar
     4     4     5   ar
     5     5     6   ar
     6     6     7   ar
     7     7     8   ar
     8     3     8   ar
     9     8     9   ar
    10     1     9   ar
    11     1    10    1
    12     2    11    1
    13     4    12    1
    14     5    13    1
    15     6    14    1
