@<TRIPOS>MOLECULE
O=c1[nH]ncn2cncc12
 14 15 0 0 0
SMALL
GASTEIGER
Energy = 0

@<TRIPOS>ATOM
      1 O           0.4722   -1.4564    0.0000 O.2     1  LIG1       -0.2641
      2 C           0.4722   -0.6314    0.0000 C.ar    1  LIG1        0.2902
      3 N           1.1867   -0.2189    0.0000 N.ar    1  LIG1       -0.2401
      4 N           1.1867    0.6061    0.0000 N.ar    1  LIG1       -0.1608
      5 C           0.4722    1.0186    0.0000 C.ar    1  LIG1        0.1221
      6 N          -0.2422    0.6061    0.0000 N.ar    1  LIG1       -0.2834
      7 C          -1.0268    0.8611    0.0000 C.ar    1  LIG1        0.1017
      8 N          -1.5118    0.1936    0.0000 N.ar    1  LIG1       -0.2429
      9 C          -1.0268   -0.4738    0.0000 C.ar    1  LIG1        0.0585
     10 C          -0.2422   -0.2189    0.0000 C.ar    1  LIG1        0.1330
     11 H           2.1242   -0.7602    0.0000 H       1  LIG1        0.1922
     12 H           0.4722    2.1201    0.0000 H       1  LIG1        0.1051
     13 H          -1.3671    1.9087    0.0000 H       1  LIG1        0.1032
     14 H          -1.3671   -1.5214    0.0000 H       1  LIG1        0.0853
@<TRIPOS>BOND
     1     1     2    2
     2     2     3   ar
     3     3     4   ar
     4     4     5   ar
     5     5     6   ar
     6     6     7   ar
     7     7     8   ar
     8     8     9   ar
     9     9    10   ar
    10     2    10   ar
    11     6    10   ar
    12     3    11    1
    13     5    12    1
    14     7    13    1
    15     9    14    1
