@<TRIPOS>MOLECULE
Cn1ccc(=O)c2nncn12
 17 18 0 0 0
SMALL
GASTEIGER
Energy = 0

@<TRIPOS>ATOM
      1 C           0.4734   -1.6878    0.0000 C.3     1  LIG1        0.0288
      2 N           0.4734   -0.8628    0.0000 N.ar    1  LIG1       -0.2872
      3 C           1.1879   -0.4503    0.0000 C.ar    1  LIG1        0.0260
      4 C           1.1879    0.3747    0.0000 C.ar    1  LIG1        0.0065
      5 C           0.4734    0.7872    0.0000 C.ar    1  LIG1        0.2259
      6 O           0.4734    1.6122    0.0000 O.2     1  LIG1       -0.2838
      7 C          -0.2410    0.3747    0.0000 C.ar    1  LIG1        0.2228
      8 N          -1.0257    0.6297    0.0000 N.ar    1  LIG1       -0.1243
      9 N          -1.5106   -0.0378    0.0000 N.ar    1  LIG1       -0.1356
     10 C          -1.0257   -0.7052    0.0000 C.ar    1  LIG1        0.1403
     11 N          -0.2410   -0.4503    0.0000 N.ar    1  LIG1       -0.2175
     12 H           1.5480   -2.0683    0.0000 H       1  LIG1        0.0472
     13 H          -0.0851   -2.0825   -0.9121 H       1  LIG1        0.0472
     14 H          -0.0568   -2.0625    0.9370 H       1  LIG1        0.0472
     15 H           2.1418   -1.0011    0.0000 H       1  LIG1        0.0826
     16 H           2.1418    0.9255    0.0000 H       1  LIG1        0.0672
     17 H          -1.3661   -1.7528    0.0000 H       1  LIG1        0.1066
@<TRIPOS>BOND
     1     1     2    1
     2     2     3   ar
     3     3     4   ar
     4     4     5   ar
     5     5     6    2
     6     5     7   ar
     7     7     8   ar
     8     8     9   ar
     9     9    10   ar
    10    10    11   ar
    11     2    11   ar
    12     7    11   ar
    13     1    12    1
    14     1    13    1
    15     1    14    1
    16     3    15    1
    17     4    16    1
    18    10    17    1
