@<TRIPOS>MOLECULE
c1cn2cnnc2s1
 11 12 0 0 0
SMALL
GASTEIGER
Energy = 0

@<TRIPOS>ATOM
      1 S           0.6893   -0.5537    0.0000 S.2     1  LIG1       -0.0560
      2 C           1.1743    0.1138    0.0000 C.ar    1  LIG1       -0.0043
      3 C           0.6893    0.7812    0.0000 C.ar    1  LIG1        0.0198
      4 N          -0.0953    0.5263    0.0000 N.ar    1  LIG1       -0.2828
      5 C          -0.8799    0.7812    0.0000 C.ar    1  LIG1        0.1245
      6 N          -1.3648    0.1138    0.0000 N.ar    1  LIG1       -0.1367
      7 N          -0.8799   -0.5537    0.0000 N.ar    1  LIG1       -0.1221
      8 C          -0.0953   -0.2987    0.0000 C.ar    1  LIG1        0.1997
      9 H           2.2758    0.1138    0.0000 H       1  LIG1        0.0709
     10 H           1.0296    1.8288    0.0000 H       1  LIG1        0.0819
     11 H          -1.2203    1.8288    0.0000 H       1  LIG1        0.1052
@<TRIPOS>BOND
     1     1     2   ar
     2     2     3   ar
     3     3     4   ar
     4     4     5   ar
     5     5     6   ar
     6     6     7   ar
     7     7     8   ar
     8     1     8   ar
     9     4     8   ar
    10     2     9    1
    11     3    10    1
    12     5    11    1
