@<TRIPOS>MOLECULE
Cn1c(=O)ccn2cnnc12
 17 18 0 0 0
SMALL
GASTEIGER
Energy = 0

@<TRIPOS>ATOM
      1 C           0.3148   -1.4059    0.0000 C.3     1  LIG1        0.0181
      2 N           0.3148   -0.5809    0.0000 N.ar    1  LIG1       -0.2803
      3 C           1.0292   -0.1684    0.0000 C.ar    1  LIG1        0.2551
      4 O           1.7437   -0.5809    0.0000 O.2     1  LIG1       -0.2676
      5 C           1.0292    0.6566    0.0000 C.ar    1  LIG1        0.0196
      6 C           0.3148    1.0691    0.0000 C.ar    1  LIG1        0.0192
      7 N          -0.3997    0.6566    0.0000 N.ar    1  LIG1       -0.2744
      8 C          -1.1843    0.9115    0.0000 C.ar    1  LIG1        0.1253
      9 N          -1.6692    0.2441    0.0000 N.ar    1  LIG1       -0.1357
     10 N          -1.1843   -0.4233    0.0000 N.ar    1  LIG1       -0.1104
     11 C          -0.3997   -0.1684    0.0000 C.ar    1  LIG1        0.2385
     12 H           1.3894   -1.7864    0.0000 H       1  LIG1        0.0458
     13 H          -0.2437   -1.8006   -0.9121 H       1  LIG1        0.0458
     14 H          -0.2154   -1.7806    0.9370 H       1  LIG1        0.0458
     15 H           1.9831    1.2073    0.0000 H       1  LIG1        0.0686
     16 H           0.3148    2.1706    0.0000 H       1  LIG1        0.0816
     17 H          -1.5247    1.9591    0.0000 H       1  LIG1        0.1052
@<TRIPOS>BOND
     1     1     2    1
     2     2     3   ar
     3     3     4    2
     4     3     5   ar
     5     5     6   ar
     6     6     7   ar
     7     7     8   ar
     8     8     9   ar
     9     9    10   ar
    10    10    11   ar
    11     2    11   ar
    12     7    11   ar
    13     1    12    1
    14     1    13    1
    15     1    14    1
    16     5    15    1
    17     6    16    1
    18     8    17    1
