@<TRIPOS>MOLECULE
O=c1nnc2cnccc2[nH]1
 15 16 0 0 0
SMALL
GASTEIGER
Energy = 0

@<TRIPOS>ATOM
      1 O           1.8856    0.7448    0.0000 O.2     1  LIG1       -0.2431
      2 C           1.1711    0.3323    0.0000 C.ar    1  LIG1        0.3646
      3 N           0.4567    0.7448    0.0000 N.ar    1  LIG1       -0.3032
      4 C          -0.2578    0.3323    0.0000 C.ar    1  LIG1        0.0735
      5 C          -0.9723    0.7448    0.0000 C.ar    1  LIG1       -0.0180
      6 C          -1.6867    0.3323    0.0000 C.ar    1  LIG1        0.0296
      7 N          -1.6867   -0.4927    0.0000 N.ar    1  LIG1       -0.2610
      8 C          -0.9723   -0.9052    0.0000 C.ar    1  LIG1        0.0567
      9 C          -0.2578   -0.4927    0.0000 C.ar    1  LIG1        0.1276
     10 N           0.4567   -0.9052    0.0000 N.ar    1  LIG1       -0.1414
     11 N           1.1711   -0.4927    0.0000 N.ar    1  LIG1       -0.0897
     12 H           0.4567    1.8273    0.0000 H       1  LIG1        0.1705
     13 H          -0.9723    1.8463    0.0000 H       1  LIG1        0.0654
     14 H          -2.6406    0.8830    0.0000 H       1  LIG1        0.0830
     15 H          -0.9723   -2.0067    0.0000 H       1  LIG1        0.0852
@<TRIPOS>BOND
     1     1     2    2
     2     2     3   ar
     3     3     4   ar
     4     4     5   ar
     5     5     6   ar
     6     6     7   ar
     7     7     8   ar
     8     8     9   ar
     9     4     9   ar
    10     9    10   ar
    11    10    11   ar
    12     2    11   ar
    13     3    12    1
    14     5    13    1
    15     6    14    1
    16     8    15    1
