@<TRIPOS>MOLECULE
c1cn2nccnc2n1
 13 14 0 0 0
SMALL
GASTEIGER
Energy = 0

@<TRIPOS>ATOM
      1 C           1.2680    0.4169    0.0000 C.ar    1  LIG1        0.0666
      2 N           0.5536    0.8294    0.0000 N.ar    1  LIG1       -0.1708
      3 N          -0.1609    0.4169    0.0000 N.ar    1  LIG1       -0.2042
      4 C          -0.9455    0.6718    0.0000 C.ar    1  LIG1        0.0510
      5 C          -1.4305    0.0044    0.0000 C.ar    1  LIG1        0.0497
      6 N          -0.9455   -0.6631    0.0000 N.ar    1  LIG1       -0.2176
      7 C          -0.1609   -0.4081    0.0000 C.ar    1  LIG1        0.2514
      8 N           0.5536   -0.8206    0.0000 N.ar    1  LIG1       -0.2175
      9 C           1.2680   -0.4081    0.0000 C.ar    1  LIG1        0.0512
     10 H           2.2219    0.9676    0.0000 H       1  LIG1        0.0863
     11 H          -1.2858    1.7194    0.0000 H       1  LIG1        0.0847
     12 H          -2.5320    0.0044    0.0000 H       1  LIG1        0.0846
     13 H           2.2219   -0.9588    0.0000 H       1  LIG1        0.0847
@<TRIPOS>BOND
     1     1     2   ar
     2     2     3   ar
     3     3     4   ar
     4     4     5   ar
     5     5     6   ar
     6     6     7   ar
     7     3     7   ar
     8     7     8   ar
     9     8     9   ar
    10     1     9   ar
    11     1    10    1
    12     4    11    1
    13     5    12    1
    14     9    13    1
