@<TRIPOS>MOLECULE
c1nc2nscc2[nH]1
 11 12 0 0 0
SMALL
GASTEIGER
Energy = 0

@<TRIPOS>ATOM
      1 N           0.9803   -0.6783    0.0000 N.ar    1  LIG1       -0.3427
      2 C           1.4652   -0.0109    0.0000 C.ar    1  LIG1        0.0962
      3 N           0.9803    0.6565    0.0000 N.ar    1  LIG1       -0.2161
      4 C           0.1957    0.4016    0.0000 C.ar    1  LIG1        0.1861
      5 N          -0.5890    0.6565    0.0000 N.ar    1  LIG1       -0.1890
      6 S          -1.0739   -0.0109    0.0000 S.2     1  LIG1        0.0078
      7 C          -0.5890   -0.6783    0.0000 C.ar    1  LIG1        0.0213
      8 C           0.1957   -0.4234    0.0000 C.ar    1  LIG1        0.0936
      9 H           1.3148   -1.7078    0.0000 H       1  LIG1        0.1669
     10 H           2.5667   -0.0109    0.0000 H       1  LIG1        0.1027
     11 H          -0.9294   -1.7259    0.0000 H       1  LIG1        0.0730
@<TRIPOS>BOND
     1     1     2   ar
     2     2     3   ar
     3     3     4   ar
     4     4     5   ar
     5     5     6   ar
     6     6     7   ar
     7     7     8   ar
     8     1     8   ar
     9     4     8   ar
    10     1     9    1
    11     2    10    1
    12     7    11    1
