@<TRIPOS>MOLECULE
Cn1cc2ccccn2c1=O
 19 20 0 0 0
SMALL
GASTEIGER
Energy = 0

@<TRIPOS>ATOM
      1 C           1.9023    0.1717    0.0000 C.3     1  LIG1        0.0162
      2 N           1.0773    0.1717    0.0000 N.ar    1  LIG1       -0.3013
      3 C           0.5924    0.8391    0.0000 C.ar    1  LIG1        0.0330
      4 C          -0.1922    0.5842    0.0000 C.ar    1  LIG1        0.0670
      5 C          -0.9067    0.9967    0.0000 C.ar    1  LIG1       -0.0362
      6 C          -1.6212    0.5842    0.0000 C.ar    1  LIG1       -0.0584
      7 C          -1.6212   -0.2408    0.0000 C.ar    1  LIG1       -0.0450
      8 C          -0.9067   -0.6533    0.0000 C.ar    1  LIG1        0.0147
      9 N          -0.1922   -0.2408    0.0000 N.ar    1  LIG1       -0.2681
     10 C           0.5924   -0.4957    0.0000 C.ar    1  LIG1        0.3335
     11 O           0.8473   -1.2804    0.0000 O.2     1  LIG1       -0.2460
     12 H           2.2828    1.2463    0.0000 H       1  LIG1        0.0457
     13 H           2.2970   -0.3868   -0.9121 H       1  LIG1        0.0457
     14 H           2.2770   -0.3585    0.9370 H       1  LIG1        0.0457
     15 H           0.9328    1.8867    0.0000 H       1  LIG1        0.0831
     16 H          -0.9067    2.0982    0.0000 H       1  LIG1        0.0639
     17 H          -2.5751    1.1350    0.0000 H       1  LIG1        0.0619
     18 H          -2.5751   -0.7916    0.0000 H       1  LIG1        0.0632
     19 H          -0.9067   -1.7548    0.0000 H       1  LIG1        0.0814
@<TRIPOS>BOND
     1     1     2    1
     2     2     3   ar
     3     3     4   ar
     4     4     5   ar
     5     5     6   ar
     6     6     7   ar
     7     7     8   ar
     8     8     9   ar
     9     4     9   ar
    10     9    10   ar
    11     2    10   ar
    12    10    11    2
    13     1    12    1
    14     1    13    1
    15     1    14    1
    16     3    15    1
    17     5    16    1
    18     6    17    1
    19     7    18    1
    20     8    19    1
