@<TRIPOS>MOLECULE
O=c1ccc2nnc(=O)[nH]c2[nH]1
 16 17 0 0 0
SMALL
GASTEIGER
Energy = 0

@<TRIPOS>ATOM
      1 O           2.1701    0.6550    0.0000 O.2     1  LIG1       -0.2679
      2 C           1.4557    0.2425    0.0000 C.ar    1  LIG1        0.2503
      3 N           0.7412    0.6550    0.0000 N.ar    1  LIG1       -0.3071
      4 C           0.0267    0.2425    0.0000 C.ar    1  LIG1        0.1430
      5 C           0.0267   -0.5825    0.0000 C.ar    1  LIG1        0.1269
      6 C           0.7412   -0.9950    0.0000 C.ar    1  LIG1       -0.0259
      7 C           1.4557   -0.5825    0.0000 C.ar    1  LIG1        0.0050
      8 N          -0.6877   -0.9950    0.0000 N.ar    1  LIG1       -0.1414
      9 N          -1.4022   -0.5825    0.0000 N.ar    1  LIG1       -0.0897
     10 C          -1.4022    0.2425    0.0000 C.ar    1  LIG1        0.3656
     11 O          -2.1167    0.6550    0.0000 O.2     1  LIG1       -0.2430
     12 N          -0.6877    0.6550    0.0000 N.ar    1  LIG1       -0.2895
     13 H           0.7412    1.7375    0.0000 H       1  LIG1        0.1703
     14 H           0.7412   -2.0965    0.0000 H       1  LIG1        0.0642
     15 H           2.4096   -1.1333    0.0000 H       1  LIG1        0.0672
     16 H          -0.6877    1.7375    0.0000 H       1  LIG1        0.1719
@<TRIPOS>BOND
     1     1     2    2
     2     2     3   ar
     3     3     4   ar
     4     4     5   ar
     5     5     6   ar
     6     6     7   ar
     7     2     7   ar
     8     5     8   ar
     9     8     9   ar
    10     9    10   ar
    11    10    11    2
    12    10    12   ar
    13     4    12   ar
    14     3    13    1
    15     6    14    1
    16     7    15    1
    17    12    16    1
