@<TRIPOS>MOLECULE
c1cc2nnncc2cn1
 14 15 0 0 0
SMALL
GASTEIGER
Energy = 0

@<TRIPOS>ATOM
      1 C           1.4623    0.4061    0.0000 C.ar    1  LIG1        0.0297
      2 C           0.7479    0.8186    0.0000 C.ar    1  LIG1       -0.0157
      3 C           0.0334    0.4061    0.0000 C.ar    1  LIG1        0.0993
      4 N          -0.6811    0.8186    0.0000 N.ar    1  LIG1       -0.1292
      5 N          -1.3955    0.4061    0.0000 N.ar    1  LIG1       -0.0428
      6 N          -1.3955   -0.4189    0.0000 N.ar    1  LIG1       -0.1371
      7 C          -0.6811   -0.8314    0.0000 C.ar    1  LIG1        0.0623
      8 C           0.0334   -0.4189    0.0000 C.ar    1  LIG1        0.0401
      9 C           0.7479   -0.8314    0.0000 C.ar    1  LIG1        0.0383
     10 N           1.4623   -0.4189    0.0000 N.ar    1  LIG1       -0.2625
     11 H           2.4162    0.9568    0.0000 H       1  LIG1        0.0830
     12 H           0.7479    1.9201    0.0000 H       1  LIG1        0.0655
     13 H          -0.6811   -1.9329    0.0000 H       1  LIG1        0.0856
     14 H           0.7479   -1.9329    0.0000 H       1  LIG1        0.0837
@<TRIPOS>BOND
     1     1     2   ar
     2     2     3   ar
     3     3     4   ar
     4     4     5   ar
     5     5     6   ar
     6     6     7   ar
     7     7     8   ar
     8     3     8   ar
     9     8     9   ar
    10     9    10   ar
    11     1    10   ar
    12     1    11    1
    13     2    12    1
    14     7    13    1
    15     9    14    1
