@<TRIPOS>MOLECULE
Cn1[nH]c(=O)ccc1=O
 15 15 0 0 0
SMALL
GASTEIGER
Energy = 0

@<TRIPOS>ATOM
      1 C          -0.0119   -1.4644    0.0000 C.3     1  LIG1        0.0319
      2 N          -0.0119   -0.6394    0.0000 N.ar    1  LIG1       -0.2526
      3 N           0.7026   -0.2269    0.0000 N.ar    1  LIG1       -0.2610
      4 C           0.7026    0.5981    0.0000 C.ar    1  LIG1        0.2634
      5 O           1.4171    1.0106    0.0000 O.2     1  LIG1       -0.2665
      6 C          -0.0119    1.0106    0.0000 C.ar    1  LIG1        0.0092
      7 C          -0.7263    0.5981    0.0000 C.ar    1  LIG1        0.0094
      8 C          -0.7263   -0.2269    0.0000 C.ar    1  LIG1        0.2655
      9 O          -1.4408   -0.6394    0.0000 O.2     1  LIG1       -0.2663
     10 H           1.0627   -1.8449    0.0000 H       1  LIG1        0.0473
     11 H          -0.5704   -1.8591   -0.9121 H       1  LIG1        0.0473
     12 H          -0.5421   -1.8391    0.9370 H       1  LIG1        0.0473
     13 H           1.6401   -0.7682    0.0000 H       1  LIG1        0.1902
     14 H          -0.0119    2.1121    0.0000 H       1  LIG1        0.0674
     15 H          -1.6802    1.1488    0.0000 H       1  LIG1        0.0674
@<TRIPOS>BOND
     1     1     2    1
     2     2     3   ar
     3     3     4   ar
     4     4     5    2
     5     4     6   ar
     6     6     7   ar
     7     7     8   ar
     8     2     8   ar
     9     8     9    2
    10     1    10    1
    11     1    11    1
    12     1    12    1
    13     3    13    1
    14     6    14    1
    15     7    15    1
