@<TRIPOS>MOLECULE
O=c1ccn2cnccn12
 15 16 0 0 0
SMALL
GASTEIGER
Energy = 0

@<TRIPOS>ATOM
      1 O           1.0673   -1.2798    0.0000 O.2     1  LIG1       -0.2659
      2 C           0.8124   -0.4952    0.0000 C.ar    1  LIG1        0.2716
      3 C           1.2973    0.1723    0.0000 C.ar    1  LIG1        0.0228
      4 C           0.8124    0.8397    0.0000 C.ar    1  LIG1        0.0346
      5 N           0.0278    0.5848    0.0000 N.ar    1  LIG1       -0.2418
      6 C          -0.6867    0.9973    0.0000 C.ar    1  LIG1        0.1160
      7 N          -1.4012    0.5848    0.0000 N.ar    1  LIG1       -0.2423
      8 C          -1.4012   -0.2402    0.0000 C.ar    1  LIG1        0.0475
      9 C          -0.6867   -0.6527    0.0000 C.ar    1  LIG1        0.0496
     10 N           0.0278   -0.2402    0.0000 N.ar    1  LIG1       -0.2177
     11 H           2.3988    0.1723    0.0000 H       1  LIG1        0.0687
     12 H           1.1528    1.8873    0.0000 H       1  LIG1        0.0832
     13 H          -0.6867    2.0988    0.0000 H       1  LIG1        0.1047
     14 H          -2.3551   -0.7910    0.0000 H       1  LIG1        0.0845
     15 H          -0.6867   -1.7542    0.0000 H       1  LIG1        0.0846
@<TRIPOS>BOND
     1     1     2    2
     2     2     3   ar
     3     3     4   ar
     4     4     5   ar
     5     5     6   ar
     6     6     7   ar
     7     7     8   ar
     8     8     9   ar
     9     9    10   ar
    10     2    10   ar
    11     5    10   ar
    12     3    11    1
    13     4    12    1
    14     6    13    1
    15     8    14    1
    16     9    15    1
