@<TRIPOS>MOLECULE
O=c1cccc2cc[nH]n12
 16 17 0 0 0
SMALL
GASTEIGER
Energy = 0

@<TRIPOS>ATOM
      1 O           0.5017   -1.4271    0.0000 O.2     1  LIG1       -0.2659
      2 C           0.5017   -0.6021    0.0000 C.ar    1  LIG1        0.2702
      3 C           1.2161   -0.1896    0.0000 C.ar    1  LIG1        0.0047
      4 C           1.2161    0.6354    0.0000 C.ar    1  LIG1       -0.0546
      5 C           0.5017    1.0479    0.0000 C.ar    1  LIG1       -0.0360
      6 C          -0.2128    0.6354    0.0000 C.ar    1  LIG1        0.0685
      7 C          -0.9974    0.8904    0.0000 C.ar    1  LIG1       -0.0188
      8 C          -1.4823    0.2229    0.0000 C.ar    1  LIG1        0.0214
      9 N          -0.9974   -0.4445    0.0000 N.ar    1  LIG1       -0.2973
     10 N          -0.2128   -0.1896    0.0000 N.ar    1  LIG1       -0.2197
     11 H           2.1700   -0.7403    0.0000 H       1  LIG1        0.0672
     12 H           2.1700    1.1861    0.0000 H       1  LIG1        0.0620
     13 H           0.5017    2.1494    0.0000 H       1  LIG1        0.0639
     14 H          -1.3378    1.9380    0.0000 H       1  LIG1        0.0654
     15 H          -2.5838    0.2229    0.0000 H       1  LIG1        0.0823
     16 H          -1.3319   -1.4740    0.0000 H       1  LIG1        0.1867
@<TRIPOS>BOND
     1     1     2    2
     2     2     3   ar
     3     3     4   ar
     4     4     5   ar
     5     5     6   ar
     6     6     7   ar
     7     7     8   ar
     8     8     9   ar
     9     9    10   ar
    10     2    10   ar
    11     6    10   ar
    12     3    11    1
    13     4    12    1
    14     5    13    1
    15     7    14    1
    16     8    15    1
    17     9    16    1
