@<TRIPOS>MOLECULE
O=c1nc2ccoc2c[nH]1
 14 15 0 0 0
SMALL
GASTEIGER
Energy = 0

@<TRIPOS>ATOM
      1 O           1.7434   -0.7390    0.0000 O.2     1  LIG1       -0.2447
      2 C           1.0289   -0.3265    0.0000 C.ar    1  LIG1        0.3466
      3 N           1.0289    0.4985    0.0000 N.ar    1  LIG1       -0.3094
      4 C           0.3144    0.9110    0.0000 C.ar    1  LIG1        0.0508
      5 C          -0.4000    0.4985    0.0000 C.ar    1  LIG1        0.1690
      6 O          -1.1846    0.7535    0.0000 O.2     1  LIG1       -0.4599
      7 C          -1.6696    0.0860    0.0000 C.ar    1  LIG1        0.0947
      8 C          -1.1846   -0.5814    0.0000 C.ar    1  LIG1        0.0024
      9 C          -0.4000   -0.3265    0.0000 C.ar    1  LIG1        0.1157
     10 N           0.3144   -0.7390    0.0000 N.ar    1  LIG1       -0.1899
     11 H           1.9664    1.0398    0.0000 H       1  LIG1        0.1700
     12 H           0.3144    2.0125    0.0000 H       1  LIG1        0.0846
     13 H          -2.7711    0.0860    0.0000 H       1  LIG1        0.1030
     14 H          -1.5249   -1.6290    0.0000 H       1  LIG1        0.0670
@<TRIPOS>BOND
     1     1     2    2
     2     2     3   ar
     3     3     4   ar
     4     4     5   ar
     5     5     6   ar
     6     6     7   ar
     7     7     8   ar
     8     8     9   ar
     9     5     9   ar
    10     9    10   ar
    11     2    10   ar
    12     3    11    1
    13     4    12    1
    14     7    13    1
    15     8    14    1
