@<TRIPOS>MOLECULE
c1ncncn1
 9 9 0 0 0
SMALL
GASTEIGER
Energy = 0

@<TRIPOS>ATOM
      1 C          -0.0000   -0.8250    0.0000 C.ar    1  LIG1        0.1194
      2 N           0.7145   -0.4125    0.0000 N.ar    1  LIG1       -0.2241
      3 C           0.7145    0.4125    0.0000 C.ar    1  LIG1        0.1194
      4 N           0.0000    0.8250    0.0000 N.ar    1  LIG1       -0.2241
      5 C          -0.7145    0.4125    0.0000 C.ar    1  LIG1        0.1194
      6 N          -0.7145   -0.4125    0.0000 N.ar    1  LIG1       -0.2241
      7 H           0.0000   -1.9265    0.0000 H       1  LIG1        0.1048
      8 H           1.6684    0.9633    0.0000 H       1  LIG1        0.1048
      9 H          -1.6684    0.9633    0.0000 H       1  LIG1        0.1048
@<TRIPOS>BOND
     1     1     2   ar
     2     2     3   ar
     3     3     4   ar
     4     4     5   ar
     5     5     6   ar
     6     1     6   ar
     7     1     7    1
     8     3     8    1
     9     5     9    1
