@<TRIPOS>MOLECULE
CN1Nc2cccnc2S1(=O)=O
 19 20 0 0 0
SMALL
GASTEIGER
Energy = 0

@<TRIPOS>ATOM
      1 C           1.7629    0.3314    0.0000 C.3     1  LIG1        0.0280
      2 N           0.9379    0.3314    0.0000 N.3     1  LIG1       -0.0980
      3 N           0.4530    0.9989    0.0000 N.pl3   1  LIG1       -0.2559
      4 C          -0.3316    0.7439    0.0000 C.ar    1  LIG1        0.0881
      5 C          -1.0461    1.1564    0.0000 C.ar    1  LIG1       -0.0347
      6 C          -1.7605    0.7439    0.0000 C.ar    1  LIG1       -0.0417
      7 C          -1.7605   -0.0811    0.0000 C.ar    1  LIG1        0.0299
      8 N          -1.0461   -0.4936    0.0000 N.ar    1  LIG1       -0.2340
      9 C          -0.3316   -0.0811    0.0000 C.ar    1  LIG1        0.2176
     10 S           0.4530   -0.3360    0.0000 S.O2    1  LIG1        0.0948
     11 O           0.9284   -1.0103    0.0000 O.2     1  LIG1       -0.1499
     12 O           0.4647   -1.1609    0.0000 O.2     1  LIG1       -0.1499
     13 H           2.1434    1.4060    0.0000 H       1  LIG1        0.0425
     14 H           2.1576   -0.2271   -0.9121 H       1  LIG1        0.0425
     15 H           2.1376   -0.1988    0.9370 H       1  LIG1        0.0425
     16 H           0.7875    2.0284    0.0000 H       1  LIG1        0.1682
     17 H          -1.0461    2.2579    0.0000 H       1  LIG1        0.0638
     18 H          -2.7144    1.2946    0.0000 H       1  LIG1        0.0633
     19 H          -2.7144   -0.6318    0.0000 H       1  LIG1        0.0830
@<TRIPOS>BOND
     1     1     2    1
     2     2     3    1
     3     3     4    1
     4     4     5   ar
     5     5     6   ar
     6     6     7   ar
     7     7     8   ar
     8     8     9   ar
     9     4     9   ar
    10     9    10    1
    11     2    10    1
    12    10    11    2
    13    10    12    2
    14     1    13    1
    15     1    14    1
    16     1    15    1
    17     3    16    1
    18     5    17    1
    19     6    18    1
    20     7    19    1
