@<TRIPOS>MOLECULE
c1cc2nncnc2o1
 12 13 0 0 0
SMALL
GASTEIGER
Energy = 0

@<TRIPOS>ATOM
      1 O           0.9537   -0.6519    0.0000 O.2     1  LIG1       -0.4438
      2 C           1.4386    0.0156    0.0000 C.ar    1  LIG1        0.0967
      3 C           0.9537    0.6830    0.0000 C.ar    1  LIG1        0.0057
      4 C           0.1691    0.4281    0.0000 C.ar    1  LIG1        0.1507
      5 N          -0.5454    0.8406    0.0000 N.ar    1  LIG1       -0.1429
      6 N          -1.2598    0.4281    0.0000 N.ar    1  LIG1       -0.1370
      7 C          -1.2598   -0.3969    0.0000 C.ar    1  LIG1        0.1421
      8 N          -0.5454   -0.8094    0.0000 N.ar    1  LIG1       -0.1974
      9 C           0.1691   -0.3969    0.0000 C.ar    1  LIG1        0.2491
     10 H           2.5401    0.0156    0.0000 H       1  LIG1        0.1031
     11 H           1.2941    1.7306    0.0000 H       1  LIG1        0.0672
     12 H          -2.2137   -0.9476    0.0000 H       1  LIG1        0.1067
@<TRIPOS>BOND
     1     1     2   ar
     2     2     3   ar
     3     3     4   ar
     4     4     5   ar
     5     5     6   ar
     6     6     7   ar
     7     7     8   ar
     8     8     9   ar
     9     1     9   ar
    10     4     9   ar
    11     2    10    1
    12     3    11    1
    13     7    12    1
