@<TRIPOS>MOLECULE
Cn1cnc2nc(=O)ncc2n1
 17 18 0 0 0
SMALL
GASTEIGER
Energy = 0

@<TRIPOS>ATOM
      1 C           2.1885   -0.8458    0.0000 C.3     1  LIG1        0.0319
      2 N           1.4740   -0.4333    0.0000 N.ar    1  LIG1       -0.2558
      3 C           1.4740    0.3917    0.0000 C.ar    1  LIG1        0.1146
      4 N           0.7595    0.8042    0.0000 N.ar    1  LIG1       -0.2147
      5 C           0.0451    0.3917    0.0000 C.ar    1  LIG1        0.1881
      6 N          -0.6694    0.8042    0.0000 N.ar    1  LIG1       -0.1701
      7 C          -1.3839    0.3917    0.0000 C.ar    1  LIG1        0.3696
      8 O          -2.0984    0.8042    0.0000 O.2     1  LIG1       -0.2426
      9 N          -1.3839   -0.4333    0.0000 N.ar    1  LIG1       -0.1976
     10 C          -0.6694   -0.8458    0.0000 C.ar    1  LIG1        0.0638
     11 C           0.0451   -0.4333    0.0000 C.ar    1  LIG1        0.1465
     12 N           0.7595   -0.8458    0.0000 N.ar    1  LIG1       -0.1655
     13 H           3.0553   -0.1054    0.0000 H       1  LIG1        0.0473
     14 H           2.2511   -1.5268   -0.9121 H       1  LIG1        0.0473
     15 H           2.2479   -1.4924    0.9370 H       1  LIG1        0.0473
     16 H           2.4279    0.9425    0.0000 H       1  LIG1        0.1044
     17 H          -0.6694   -1.9473    0.0000 H       1  LIG1        0.0855
@<TRIPOS>BOND
     1     1     2    1
     2     2     3   ar
     3     3     4   ar
     4     4     5   ar
     5     5     6   ar
     6     6     7   ar
     7     7     8    2
     8     7     9   ar
     9     9    10   ar
    10    10    11   ar
    11     5    11   ar
    12    11    12   ar
    13     2    12   ar
    14     1    13    1
    15     1    14    1
    16     1    15    1
    17     3    16    1
    18    10    17    1
