@<TRIPOS>MOLECULE
Cn1ccc2cnncc2c1=O
 19 20 0 0 0
SMALL
GASTEIGER
Energy = 0

@<TRIPOS>ATOM
      1 C           1.9207   -0.5841    0.0000 C.3     1  LIG1        0.0147
      2 N           1.2062   -0.1716    0.0000 N.ar    1  LIG1       -0.3177
      3 C           1.2062    0.6534    0.0000 C.ar    1  LIG1        0.0082
      4 C           0.4917    1.0659    0.0000 C.ar    1  LIG1       -0.0360
      5 C          -0.2227    0.6534    0.0000 C.ar    1  LIG1        0.0100
      6 C          -0.9372    1.0659    0.0000 C.ar    1  LIG1        0.0579
      7 N          -1.6517    0.6534    0.0000 N.ar    1  LIG1       -0.1571
      8 N          -1.6517   -0.1716    0.0000 N.ar    1  LIG1       -0.1569
      9 C          -0.9372   -0.5841    0.0000 C.ar    1  LIG1        0.0628
     10 C          -0.2227   -0.1716    0.0000 C.ar    1  LIG1        0.0679
     11 C           0.4917   -0.5841    0.0000 C.ar    1  LIG1        0.2603
     12 O           0.4917   -1.4091    0.0000 O.2     1  LIG1       -0.2670
     13 H           2.7875    0.1563    0.0000 H       1  LIG1        0.0457
     14 H           1.9833   -1.2651   -0.9121 H       1  LIG1        0.0457
     15 H           1.9801   -1.2307    0.9370 H       1  LIG1        0.0457
     16 H           2.1601    1.2042    0.0000 H       1  LIG1        0.0810
     17 H           0.4917    2.1674    0.0000 H       1  LIG1        0.0639
     18 H          -0.9372    2.1674    0.0000 H       1  LIG1        0.0854
     19 H          -0.9372   -1.6856    0.0000 H       1  LIG1        0.0856
@<TRIPOS>BOND
     1     1     2    1
     2     2     3   ar
     3     3     4   ar
     4     4     5   ar
     5     5     6   ar
     6     6     7   ar
     7     7     8   ar
     8     8     9   ar
     9     9    10   ar
    10     5    10   ar
    11    10    11   ar
    12     2    11   ar
    13    11    12    2
    14     1    13    1
    15     1    14    1
    16     1    15    1
    17     3    16    1
    18     4    17    1
    19     6    18    1
    20     9    19    1
