@<TRIPOS>MOLECULE
c1snc2ncccc12
 13 14 0 0 0
SMALL
GASTEIGER
Energy = 0

@<TRIPOS>ATOM
      1 S           1.2074    0.0225    0.0000 S.2     1  LIG1        0.0063
      2 C           0.7225    0.6900    0.0000 C.ar    1  LIG1        0.0050
      3 C          -0.0621    0.4350    0.0000 C.ar    1  LIG1        0.0277
      4 C          -0.7766    0.8475    0.0000 C.ar    1  LIG1       -0.0491
      5 C          -1.4911    0.4350    0.0000 C.ar    1  LIG1       -0.0429
      6 C          -1.4911   -0.3900    0.0000 C.ar    1  LIG1        0.0300
      7 N          -0.7766   -0.8025    0.0000 N.ar    1  LIG1       -0.2352
      8 C          -0.0621   -0.3900    0.0000 C.ar    1  LIG1        0.1684
      9 N           0.7225   -0.6449    0.0000 N.ar    1  LIG1       -0.1906
     10 H           1.0629    1.7376    0.0000 H       1  LIG1        0.0715
     11 H          -0.7766    1.9490    0.0000 H       1  LIG1        0.0625
     12 H          -2.4450    0.9858    0.0000 H       1  LIG1        0.0633
     13 H          -2.4450   -0.9408    0.0000 H       1  LIG1        0.0830
@<TRIPOS>BOND
     1     1     2   ar
     2     2     3   ar
     3     3     4   ar
     4     4     5   ar
     5     5     6   ar
     6     6     7   ar
     7     7     8   ar
     8     3     8   ar
     9     8     9   ar
    10     1     9   ar
    11     2    10    1
    12     4    11    1
    13     5    12    1
    14     6    13    1
