@<TRIPOS>MOLECULE
c1nc2ncncc2s1
 12 13 0 0 0
SMALL
GASTEIGER
Energy = 0

@<TRIPOS>ATOM
      1 S           0.8172   -0.5837    0.0000 S.2     1  LIG1       -0.0722
      2 C           1.3021    0.0837    0.0000 C.ar    1  LIG1        0.0677
      3 N           0.8172    0.7512    0.0000 N.ar    1  LIG1       -0.2280
      4 C           0.0326    0.4962    0.0000 C.ar    1  LIG1        0.1700
      5 N          -0.6819    0.9087    0.0000 N.ar    1  LIG1       -0.2155
      6 C          -1.3964    0.4962    0.0000 C.ar    1  LIG1        0.1183
      7 N          -1.3964   -0.3288    0.0000 N.ar    1  LIG1       -0.2425
      8 C          -0.6819   -0.7413    0.0000 C.ar    1  LIG1        0.0466
      9 C           0.0326   -0.3288    0.0000 C.ar    1  LIG1        0.0758
     10 H           2.4036    0.0837    0.0000 H       1  LIG1        0.0908
     11 H          -2.3503    1.0470    0.0000 H       1  LIG1        0.1047
     12 H          -0.6819   -1.8428    0.0000 H       1  LIG1        0.0842
@<TRIPOS>BOND
     1     1     2   ar
     2     2     3   ar
     3     3     4   ar
     4     4     5   ar
     5     5     6   ar
     6     6     7   ar
     7     7     8   ar
     8     8     9   ar
     9     1     9   ar
    10     4     9   ar
    11     2    10    1
    12     6    11    1
    13     8    12    1
