@<TRIPOS>MOLECULE
O=c1cn[nH]c2nc[nH]c12
 14 15 0 0 0
SMALL
GASTEIGER
Energy = 0

@<TRIPOS>ATOM
      1 O          -0.4876   -1.4688    0.0000 O.2     1  LIG1       -0.2839
      2 C          -0.4876   -0.6438    0.0000 C.ar    1  LIG1        0.2253
      3 C          -1.2020   -0.2313    0.0000 C.ar    1  LIG1        0.0966
      4 N          -1.2020    0.5937    0.0000 N.ar    1  LIG1       -0.1767
      5 N          -0.4876    1.0062    0.0000 N.ar    1  LIG1       -0.2588
      6 C           0.2269    0.5937    0.0000 C.ar    1  LIG1        0.1759
      7 C           0.2269   -0.2313    0.0000 C.ar    1  LIG1        0.1333
      8 N           1.0115   -0.4863    0.0000 N.ar    1  LIG1       -0.3401
      9 C           1.4964    0.1812    0.0000 C.ar    1  LIG1        0.0963
     10 N           1.0115    0.8486    0.0000 N.ar    1  LIG1       -0.2169
     11 H          -2.1559   -0.7820    0.0000 H       1  LIG1        0.0887
     12 H          -0.4876    2.0887    0.0000 H       1  LIG1        0.1906
     13 H           1.3460   -1.5158    0.0000 H       1  LIG1        0.1670
     14 H           2.5979    0.1812    0.0000 H       1  LIG1        0.1027
@<TRIPOS>BOND
     1     1     2    2
     2     2     3   ar
     3     3     4   ar
     4     4     5   ar
     5     5     6   ar
     6     6     7   ar
     7     2     7   ar
     8     7     8   ar
     9     8     9   ar
    10     9    10   ar
    11     6    10   ar
    12     3    11    1
    13     5    12    1
    14     8    13    1
    15     9    14    1
