@<TRIPOS>MOLECULE
c1nsc2ccncc12
 13 14 0 0 0
SMALL
GASTEIGER
Energy = 0

@<TRIPOS>ATOM
      1 S           0.7996   -0.5724    0.0000 S.2     1  LIG1        0.0117
      2 N           1.2845    0.0951    0.0000 N.ar    1  LIG1       -0.2175
      3 C           0.7996    0.7625    0.0000 C.ar    1  LIG1        0.0458
      4 C           0.0149    0.5076    0.0000 C.ar    1  LIG1        0.0269
      5 C          -0.6995    0.9201    0.0000 C.ar    1  LIG1        0.0373
      6 N          -1.4140    0.5076    0.0000 N.ar    1  LIG1       -0.2626
      7 C          -1.4140   -0.3174    0.0000 C.ar    1  LIG1        0.0287
      8 C          -0.6995   -0.7299    0.0000 C.ar    1  LIG1       -0.0278
      9 C           0.0149   -0.3174    0.0000 C.ar    1  LIG1        0.0422
     10 H           1.1400    1.8101    0.0000 H       1  LIG1        0.0843
     11 H          -0.6995    2.0216    0.0000 H       1  LIG1        0.0836
     12 H          -2.3679   -0.8682    0.0000 H       1  LIG1        0.0830
     13 H          -0.6995   -1.8314    0.0000 H       1  LIG1        0.0644
@<TRIPOS>BOND
     1     1     2   ar
     2     2     3   ar
     3     3     4   ar
     4     4     5   ar
     5     5     6   ar
     6     6     7   ar
     7     7     8   ar
     8     8     9   ar
     9     1     9   ar
    10     4     9   ar
    11     3    10    1
    12     5    11    1
    13     7    12    1
    14     8    13    1
