@<TRIPOS>MOLECULE
Cn1ccc2cccnc2c1=O
 20 21 0 0 0
SMALL
GASTEIGER
Energy = 0

@<TRIPOS>ATOM
      1 C           1.8896   -0.5701    0.0000 C.3     1  LIG1        0.0148
      2 N           1.1752   -0.1576    0.0000 N.ar    1  LIG1       -0.3165
      3 C           1.1752    0.6674    0.0000 C.ar    1  LIG1        0.0083
      4 C           0.4607    1.0799    0.0000 C.ar    1  LIG1       -0.0361
      5 C          -0.2538    0.6674    0.0000 C.ar    1  LIG1        0.0071
      6 C          -0.9682    1.0799    0.0000 C.ar    1  LIG1       -0.0509
      7 C          -1.6827    0.6674    0.0000 C.ar    1  LIG1       -0.0430
      8 C          -1.6827   -0.1576    0.0000 C.ar    1  LIG1        0.0285
      9 N          -0.9682   -0.5701    0.0000 N.ar    1  LIG1       -0.2495
     10 C          -0.2538   -0.1576    0.0000 C.ar    1  LIG1        0.1352
     11 C           0.4607   -0.5701    0.0000 C.ar    1  LIG1        0.2771
     12 O           0.4607   -1.3951    0.0000 O.2     1  LIG1       -0.2654
     13 H           2.7565    0.1702    0.0000 H       1  LIG1        0.0457
     14 H           1.9521   -1.2511   -0.9121 H       1  LIG1        0.0457
     15 H           1.9490   -1.2167    0.9370 H       1  LIG1        0.0457
     16 H           2.1291    1.2182    0.0000 H       1  LIG1        0.0810
     17 H           0.4607    2.1814    0.0000 H       1  LIG1        0.0639
     18 H          -0.9682    2.1814    0.0000 H       1  LIG1        0.0625
     19 H          -2.6366    1.2182    0.0000 H       1  LIG1        0.0633
     20 H          -2.6366   -0.7084    0.0000 H       1  LIG1        0.0830
@<TRIPOS>BOND
     1     1     2    1
     2     2     3   ar
     3     3     4   ar
     4     4     5   ar
     5     5     6   ar
     6     6     7   ar
     7     7     8   ar
     8     8     9   ar
     9     9    10   ar
    10     5    10   ar
    11    10    11   ar
    12     2    11   ar
    13    11    12    2
    14     1    13    1
    15     1    14    1
    16     1    15    1
    17     3    16    1
    18     4    17    1
    19     6    18    1
    20     7    19    1
    21     8    20    1
