@<TRIPOS>MOLECULE
c1cc2nccnn2c1
 14 15 0 0 0
SMALL
GASTEIGER
Energy = 0

@<TRIPOS>ATOM
      1 C           1.4470   -0.0072    0.0000 C.ar    1  LIG1       -0.0400
      2 C           0.9621    0.6602    0.0000 C.ar    1  LIG1        0.0315
      3 N           0.1774    0.4053    0.0000 N.ar    1  LIG1       -0.2218
      4 N          -0.5370    0.8178    0.0000 N.ar    1  LIG1       -0.1720
      5 C          -1.2515    0.4053    0.0000 C.ar    1  LIG1        0.0665
      6 C          -1.2515   -0.4197    0.0000 C.ar    1  LIG1        0.0497
      7 N          -0.5370   -0.8322    0.0000 N.ar    1  LIG1       -0.2346
      8 C           0.1774   -0.4197    0.0000 C.ar    1  LIG1        0.1539
      9 C           0.9621   -0.6747    0.0000 C.ar    1  LIG1       -0.0160
     10 H           2.5485   -0.0072    0.0000 H       1  LIG1        0.0634
     11 H           1.3025    1.7078    0.0000 H       1  LIG1        0.0831
     12 H          -2.2054    0.9561    0.0000 H       1  LIG1        0.0863
     13 H          -2.2054   -0.9705    0.0000 H       1  LIG1        0.0846
     14 H           1.3025   -1.7223    0.0000 H       1  LIG1        0.0655
@<TRIPOS>BOND
     1     1     2   ar
     2     2     3   ar
     3     3     4   ar
     4     4     5   ar
     5     5     6   ar
     6     6     7   ar
     7     7     8   ar
     8     3     8   ar
     9     8     9   ar
    10     1     9   ar
    11     1    10    1
    12     2    11    1
    13     5    12    1
    14     6    13    1
    15     9    14    1
