@<TRIPOS>MOLECULE
c1cc2cncnc2[nH]1
 14 15 0 0 0
SMALL
GASTEIGER
Energy = 0

@<TRIPOS>ATOM
      1 N           0.9608   -0.6485    0.0000 N.ar    1  LIG1       -0.3458
      2 C           1.4458    0.0189    0.0000 C.ar    1  LIG1        0.0042
      3 C           0.9608    0.6863    0.0000 C.ar    1  LIG1       -0.0336
      4 C           0.1762    0.4314    0.0000 C.ar    1  LIG1        0.0367
      5 C          -0.5382    0.8439    0.0000 C.ar    1  LIG1        0.0400
      6 N          -1.2527    0.4314    0.0000 N.ar    1  LIG1       -0.2430
      7 C          -1.2527   -0.3936    0.0000 C.ar    1  LIG1        0.1182
      8 N          -0.5382   -0.8061    0.0000 N.ar    1  LIG1       -0.2180
      9 C           0.1762   -0.3936    0.0000 C.ar    1  LIG1        0.1413
     10 H           1.2953   -1.6780    0.0000 H       1  LIG1        0.1668
     11 H           2.5473    0.0189    0.0000 H       1  LIG1        0.0807
     12 H           1.3011    1.7339    0.0000 H       1  LIG1        0.0639
     13 H          -0.5382    1.9454    0.0000 H       1  LIG1        0.0837
     14 H          -2.2066   -0.9444    0.0000 H       1  LIG1        0.1047
@<TRIPOS>BOND
     1     1     2   ar
     2     2     3   ar
     3     3     4   ar
     4     4     5   ar
     5     5     6   ar
     6     6     7   ar
     7     7     8   ar
     8     8     9   ar
     9     1     9   ar
    10     4     9   ar
    11     1    10    1
    12     2    11    1
    13     3    12    1
    14     5    13    1
    15     7    14    1
