@<TRIPOS>MOLECULE
O=c1[nH]c(=O)c2ccoc2[nH]1
 15 16 0 0 0
SMALL
GASTEIGER
Energy = 0

@<TRIPOS>ATOM
      1 O          -1.7094   -0.8906    0.0000 O.2     1  LIG1       -0.2466
      2 C          -0.9949   -0.4781    0.0000 C.ar    1  LIG1        0.3294
      3 N          -0.9949    0.3469    0.0000 N.ar    1  LIG1       -0.2744
      4 C          -0.2805    0.7594    0.0000 C.ar    1  LIG1        0.2649
      5 O          -0.2805    1.5844    0.0000 O.2     1  LIG1       -0.2669
      6 C           0.4340    0.3469    0.0000 C.ar    1  LIG1        0.1022
      7 C           0.4340   -0.4781    0.0000 C.ar    1  LIG1        0.2144
      8 N          -0.2805   -0.8906    0.0000 N.ar    1  LIG1       -0.2778
      9 O           1.2186   -0.7330    0.0000 O.2     1  LIG1       -0.4465
     10 C           1.7035   -0.0656    0.0000 C.ar    1  LIG1        0.0952
     11 C           1.2186    0.6018    0.0000 C.ar    1  LIG1       -0.0093
     12 H          -1.9324    0.8881    0.0000 H       1  LIG1        0.1734
     13 H          -0.2805   -1.9731    0.0000 H       1  LIG1        0.1733
     14 H           2.8050   -0.0656    0.0000 H       1  LIG1        0.1030
     15 H           1.5590    1.6494    0.0000 H       1  LIG1        0.0657
@<TRIPOS>BOND
     1     1     2    2
     2     2     3   ar
     3     3     4   ar
     4     4     5    2
     5     4     6   ar
     6     6     7   ar
     7     7     8   ar
     8     2     8   ar
     9     7     9   ar
    10     9    10   ar
    11    10    11   ar
    12     6    11   ar
    13     3    12    1
    14     8    13    1
    15    10    14    1
    16    11    15    1
