@<TRIPOS>MOLECULE
Cn1ccn2cnnc12
 15 16 0 0 0
SMALL
GASTEIGER
Energy = 0

@<TRIPOS>ATOM
      1 C           0.9538   -1.2860    0.0000 C.3     1  LIG1        0.0147
      2 N           0.6989   -0.5013    0.0000 N.ar    1  LIG1       -0.3183
      3 C           1.1838    0.1661    0.0000 C.ar    1  LIG1        0.0241
      4 C           0.6989    0.8335    0.0000 C.ar    1  LIG1        0.0302
      5 N          -0.0857    0.5786    0.0000 N.ar    1  LIG1       -0.2732
      6 C          -0.8704    0.8335    0.0000 C.ar    1  LIG1        0.1253
      7 N          -1.3553    0.1661    0.0000 N.ar    1  LIG1       -0.1357
      8 N          -0.8704   -0.5013    0.0000 N.ar    1  LIG1       -0.1105
      9 C          -0.0857   -0.2464    0.0000 C.ar    1  LIG1        0.2358
     10 H           2.0934   -1.3159    0.0000 H       1  LIG1        0.0457
     11 H           0.5446   -1.8339   -0.9121 H       1  LIG1        0.0457
     12 H           0.5653   -1.8062    0.9370 H       1  LIG1        0.0457
     13 H           2.2853    0.1661    0.0000 H       1  LIG1        0.0825
     14 H           1.0393    1.8811    0.0000 H       1  LIG1        0.0829
     15 H          -1.2108    1.8811    0.0000 H       1  LIG1        0.1052
@<TRIPOS>BOND
     1     1     2    1
     2     2     3   ar
     3     3     4   ar
     4     4     5   ar
     5     5     6   ar
     6     6     7   ar
     7     7     8   ar
     8     8     9   ar
     9     2     9   ar
    10     5     9   ar
    11     1    10    1
    12     1    11    1
    13     1    12    1
    14     3    13    1
    15     4    14    1
    16     6    15    1
