@<TRIPOS>MOLECULE
O=c1cc[nH]c2c(=O)nc[nH]c12
 17 18 0 0 0
SMALL
GASTEIGER
Energy = 0

@<TRIPOS>ATOM
      1 O           0.7325   -1.6552    0.0000 O.2     1  LIG1       -0.2856
      2 C           0.7325   -0.8302    0.0000 C.ar    1  LIG1        0.2057
      3 C           1.4470   -0.4177    0.0000 C.ar    1  LIG1        0.0031
      4 C           1.4470    0.4073    0.0000 C.ar    1  LIG1        0.0060
      5 N           0.7325    0.8198    0.0000 N.ar    1  LIG1       -0.3551
      6 C           0.0180    0.4073    0.0000 C.ar    1  LIG1        0.1337
      7 C           0.0180   -0.4177    0.0000 C.ar    1  LIG1        0.1166
      8 N          -0.6964   -0.8302    0.0000 N.ar    1  LIG1       -0.3412
      9 C          -1.4109   -0.4177    0.0000 C.ar    1  LIG1        0.0978
     10 N          -1.4109    0.4073    0.0000 N.ar    1  LIG1       -0.1978
     11 C          -0.6964    0.8198    0.0000 C.ar    1  LIG1        0.2971
     12 O          -0.6964    1.6448    0.0000 O.2     1  LIG1       -0.2635
     13 H           2.4009   -0.9685    0.0000 H       1  LIG1        0.0671
     14 H           2.4009    0.9581    0.0000 H       1  LIG1        0.0808
     15 H           0.7325    1.9023    0.0000 H       1  LIG1        0.1655
     16 H          -0.6964   -1.9127    0.0000 H       1  LIG1        0.1669
     17 H          -2.3648   -0.9685    0.0000 H       1  LIG1        0.1028
@<TRIPOS>BOND
     1     1     2    2
     2     2     3   ar
     3     3     4   ar
     4     4     5   ar
     5     5     6   ar
     6     6     7   ar
     7     2     7   ar
     8     7     8   ar
     9     8     9   ar
    10     9    10   ar
    11    10    11   ar
    12     6    11   ar
    13    11    12    2
    14     3    13    1
    15     4    14    1
    16     5    15    1
    17     8    16    1
    18     9    17    1
