@<TRIPOS>MOLECULE
O=c1cnc2[nH]cnc2[nH]1
 14 15 0 0 0
SMALL
GASTEIGER
Energy = 0

@<TRIPOS>ATOM
      1 O          -1.7542    0.7251    0.0000 O.2     1  LIG1       -0.2662
      2 C          -1.0397    0.3126    0.0000 C.ar    1  LIG1        0.2685
      3 N          -0.3253    0.7251    0.0000 N.ar    1  LIG1       -0.3033
      4 C           0.3892    0.3126    0.0000 C.ar    1  LIG1        0.1780
      5 C           0.3892   -0.5124    0.0000 C.ar    1  LIG1        0.1752
      6 N           1.1738   -0.7674    0.0000 N.ar    1  LIG1       -0.3280
      7 C           1.6587   -0.0999    0.0000 C.ar    1  LIG1        0.0973
      8 N           1.1738    0.5675    0.0000 N.ar    1  LIG1       -0.2167
      9 N          -0.3253   -0.9249    0.0000 N.ar    1  LIG1       -0.2293
     10 C          -1.0397   -0.5124    0.0000 C.ar    1  LIG1        0.0943
     11 H          -0.3253    1.8076    0.0000 H       1  LIG1        0.1705
     12 H           1.5083   -1.7969    0.0000 H       1  LIG1        0.1683
     13 H           2.7602   -0.0999    0.0000 H       1  LIG1        0.1028
     14 H          -1.9936   -1.0631    0.0000 H       1  LIG1        0.0886
@<TRIPOS>BOND
     1     1     2    2
     2     2     3   ar
     3     3     4   ar
     4     4     5   ar
     5     5     6   ar
     6     6     7   ar
     7     7     8   ar
     8     4     8   ar
     9     5     9   ar
    10     9    10   ar
    11     2    10   ar
    12     3    11    1
    13     6    12    1
    14     7    13    1
    15    10    14    1
