@<TRIPOS>MOLECULE
Cn1ncc2cn[nH]c(=O)c12
 17 18 0 0 0
SMALL
GASTEIGER
Energy = 0

@<TRIPOS>ATOM
      1 C           1.1641   -1.1386    0.0000 C.3     1  LIG1        0.0311
      2 N           0.9091   -0.3539    0.0000 N.ar    1  LIG1       -0.2614
      3 N           1.3941    0.3135    0.0000 N.ar    1  LIG1       -0.1785
      4 C           0.9091    0.9809    0.0000 C.ar    1  LIG1        0.0588
      5 C           0.1245    0.7260    0.0000 C.ar    1  LIG1        0.0448
      6 C           0.1245   -0.0990    0.0000 C.ar    1  LIG1        0.1355
      7 C          -0.5900   -0.5115    0.0000 C.ar    1  LIG1        0.2904
      8 O          -0.5900   -1.3365    0.0000 O.2     1  LIG1       -0.2641
      9 N          -1.3044   -0.0990    0.0000 N.ar    1  LIG1       -0.2415
     10 N          -1.3044    0.7260    0.0000 N.ar    1  LIG1       -0.1786
     11 C          -0.5900    1.1385    0.0000 C.ar    1  LIG1        0.0587
     12 H           2.3037   -1.1684    0.0000 H       1  LIG1        0.0473
     13 H           0.7550   -1.6865   -0.9121 H       1  LIG1        0.0473
     14 H           0.7756   -1.6589    0.9370 H       1  LIG1        0.0473
     15 H           1.2494    2.0285    0.0000 H       1  LIG1        0.0854
     16 H          -2.2419   -0.6402    0.0000 H       1  LIG1        0.1922
     17 H          -0.5900    2.2400    0.0000 H       1  LIG1        0.0854
@<TRIPOS>BOND
     1     1     2    1
     2     2     3   ar
     3     3     4   ar
     4     4     5   ar
     5     5     6   ar
     6     2     6   ar
     7     6     7   ar
     8     7     8    2
     9     7     9   ar
    10     9    10   ar
    11    10    11   ar
    12     5    11   ar
    13     1    12    1
    14     1    13    1
    15     1    14    1
    16     4    15    1
    17     9    16    1
    18    11    17    1
