@<TRIPOS>MOLECULE
O=c1ncc2[nH]cnc(=O)c2[nH]1
 16 17 0 0 0
SMALL
GASTEIGER
Energy = 0

@<TRIPOS>ATOM
      1 O           2.0006    0.5776    0.0000 O.2     1  LIG1       -0.2447
      2 C           1.2861    0.1651    0.0000 C.ar    1  LIG1        0.3465
      3 N           0.5717    0.5776    0.0000 N.ar    1  LIG1       -0.3002
      4 C          -0.1428    0.1651    0.0000 C.ar    1  LIG1        0.1353
      5 C          -0.1428   -0.6599    0.0000 C.ar    1  LIG1        0.0879
      6 N          -0.8573   -1.0724    0.0000 N.ar    1  LIG1       -0.3430
      7 C          -1.5718   -0.6599    0.0000 C.ar    1  LIG1        0.0978
      8 N          -1.5718    0.1651    0.0000 N.ar    1  LIG1       -0.1978
      9 C          -0.8573    0.5776    0.0000 C.ar    1  LIG1        0.2971
     10 O          -0.8573    1.4026    0.0000 O.2     1  LIG1       -0.2635
     11 C           0.5717   -1.0724    0.0000 C.ar    1  LIG1        0.0585
     12 N           1.2861   -0.6599    0.0000 N.ar    1  LIG1       -0.1994
     13 H           0.5717    1.6601    0.0000 H       1  LIG1        0.1707
     14 H          -0.8573   -2.1549    0.0000 H       1  LIG1        0.1668
     15 H          -2.5257   -1.2107    0.0000 H       1  LIG1        0.1028
     16 H           0.5717   -2.1739    0.0000 H       1  LIG1        0.0853
@<TRIPOS>BOND
     1     1     2    2
     2     2     3   ar
     3     3     4   ar
     4     4     5   ar
     5     5     6   ar
     6     6     7   ar
     7     7     8   ar
     8     8     9   ar
     9     4     9   ar
    10     9    10    2
    11     5    11   ar
    12    11    12   ar
    13     2    12   ar
    14     3    13    1
    15     6    14    1
    16     7    15    1
    17    11    16    1
