@<TRIPOS>MOLECULE
Cn1ccnc2ccnc12
 17 18 0 0 0
SMALL
GASTEIGER
Energy = 0

@<TRIPOS>ATOM
      1 C           0.4983   -1.4823    0.0000 C.3     1  LIG1        0.0133
      2 N           0.4983   -0.6573    0.0000 N.ar    1  LIG1       -0.3323
      3 C           1.2128   -0.2448    0.0000 C.ar    1  LIG1        0.0243
      4 C           1.2128    0.5802    0.0000 C.ar    1  LIG1        0.0445
      5 N           0.4983    0.9927    0.0000 N.ar    1  LIG1       -0.2504
      6 C          -0.2162    0.5802    0.0000 C.ar    1  LIG1        0.1076
      7 C          -1.0008    0.8352    0.0000 C.ar    1  LIG1       -0.0146
      8 C          -1.4857    0.1677    0.0000 C.ar    1  LIG1        0.0321
      9 N          -1.0008   -0.4997    0.0000 N.ar    1  LIG1       -0.2357
     10 C          -0.2162   -0.2448    0.0000 C.ar    1  LIG1        0.1589
     11 H           1.5729   -1.8628    0.0000 H       1  LIG1        0.0456
     12 H          -0.0602   -1.8770   -0.9121 H       1  LIG1        0.0456
     13 H          -0.0319   -1.8570    0.9370 H       1  LIG1        0.0456
     14 H           2.1667   -0.7956    0.0000 H       1  LIG1        0.0825
     15 H           2.1667    1.1310    0.0000 H       1  LIG1        0.0844
     16 H          -1.3412    1.8828    0.0000 H       1  LIG1        0.0655
     17 H          -2.5872    0.1677    0.0000 H       1  LIG1        0.0831
@<TRIPOS>BOND
     1     1     2    1
     2     2     3   ar
     3     3     4   ar
     4     4     5   ar
     5     5     6   ar
     6     6     7   ar
     7     7     8   ar
     8     8     9   ar
     9     9    10   ar
    10     2    10   ar
    11     6    10   ar
    12     1    11    1
    13     1    12    1
    14     1    13    1
    15     3    14    1
    16     4    15    1
    17     7    16    1
    18     8    17    1
