@<TRIPOS>MOLECULE
c1cnc2nncnc2n1
 13 14 0 0 0
SMALL
GASTEIGER
Energy = 0

@<TRIPOS>ATOM
      1 C           1.4509   -0.4188    0.0000 C.ar    1  LIG1        0.0482
      2 C           1.4509    0.4062    0.0000 C.ar    1  LIG1        0.0482
      3 N           0.7364    0.8187    0.0000 N.ar    1  LIG1       -0.2302
      4 C           0.0219    0.4062    0.0000 C.ar    1  LIG1        0.2192
      5 N          -0.6925    0.8187    0.0000 N.ar    1  LIG1       -0.1244
      6 N          -1.4070    0.4062    0.0000 N.ar    1  LIG1       -0.1356
      7 C          -1.4070   -0.4188    0.0000 C.ar    1  LIG1        0.1407
      8 N          -0.6925   -0.8313    0.0000 N.ar    1  LIG1       -0.2114
      9 C           0.0219   -0.4188    0.0000 C.ar    1  LIG1        0.2009
     10 N           0.7364   -0.8313    0.0000 N.ar    1  LIG1       -0.2315
     11 H           2.4048   -0.9696    0.0000 H       1  LIG1        0.0846
     12 H           2.4048    0.9570    0.0000 H       1  LIG1        0.0846
     13 H          -2.3609   -0.9696    0.0000 H       1  LIG1        0.1066
@<TRIPOS>BOND
     1     1     2   ar
     2     2     3   ar
     3     3     4   ar
     4     4     5   ar
     5     5     6   ar
     6     6     7   ar
     7     7     8   ar
     8     8     9   ar
     9     4     9   ar
    10     9    10   ar
    11     1    10   ar
    12     1    11    1
    13     2    12    1
    14     7    13    1
