@<TRIPOS>MOLECULE
Cn1ncc2cocc2c1=O
 17 18 0 0 0
SMALL
GASTEIGER
Energy = 0

@<TRIPOS>ATOM
      1 C           1.7603   -0.5730    0.0000 C.3     1  LIG1        0.0340
      2 N           1.0458   -0.1605    0.0000 N.ar    1  LIG1       -0.2320
      3 N           1.0458    0.6645    0.0000 N.ar    1  LIG1       -0.1762
      4 C           0.3313    1.0770    0.0000 C.ar    1  LIG1        0.0589
      5 C          -0.3832    0.6645    0.0000 C.ar    1  LIG1        0.0448
      6 C          -1.1678    0.9194    0.0000 C.ar    1  LIG1        0.1011
      7 O          -1.6527    0.2520    0.0000 O.2     1  LIG1       -0.4696
      8 C          -1.1678   -0.4155    0.0000 C.ar    1  LIG1        0.1047
      9 C          -0.3832   -0.1605    0.0000 C.ar    1  LIG1        0.0871
     10 C           0.3313   -0.5730    0.0000 C.ar    1  LIG1        0.2778
     11 O           0.3313   -1.3980    0.0000 O.2     1  LIG1       -0.2655
     12 H           2.6271    0.1674    0.0000 H       1  LIG1        0.0474
     13 H           1.8229   -1.2540   -0.9121 H       1  LIG1        0.0474
     14 H           1.8197   -1.2196    0.9370 H       1  LIG1        0.0474
     15 H           0.3313    2.1785    0.0000 H       1  LIG1        0.0854
     16 H          -1.5082    1.9670    0.0000 H       1  LIG1        0.1036
     17 H          -1.5082   -1.4631    0.0000 H       1  LIG1        0.1037
@<TRIPOS>BOND
     1     1     2    1
     2     2     3   ar
     3     3     4   ar
     4     4     5   ar
     5     5     6   ar
     6     6     7   ar
     7     7     8   ar
     8     8     9   ar
     9     5     9   ar
    10     9    10   ar
    11     2    10   ar
    12    10    11    2
    13     1    12    1
    14     1    13    1
    15     1    14    1
    16     4    15    1
    17     6    16    1
    18     8    17    1
