@<TRIPOS>MOLECULE
O=c1[nH]nc2ncncn12
 13 14 0 0 0
SMALL
GASTEIGER
Energy = 0

@<TRIPOS>ATOM
      1 O           1.0466   -1.2887    0.0000 O.2     1  LIG1       -0.2445
      2 C           0.7916   -0.5041    0.0000 C.ar    1  LIG1        0.3508
      3 N           1.2765    0.1633    0.0000 N.ar    1  LIG1       -0.2244
      4 N           0.7916    0.8308    0.0000 N.ar    1  LIG1       -0.1304
      5 C           0.0070    0.5758    0.0000 C.ar    1  LIG1        0.2585
      6 N          -0.7075    0.9883    0.0000 N.ar    1  LIG1       -0.1990
      7 C          -1.4219    0.5758    0.0000 C.ar    1  LIG1        0.1215
      8 N          -1.4219   -0.2492    0.0000 N.ar    1  LIG1       -0.2253
      9 C          -0.7075   -0.6617    0.0000 C.ar    1  LIG1        0.1091
     10 N           0.0070   -0.2492    0.0000 N.ar    1  LIG1       -0.2182
     11 H           2.3590    0.1633    0.0000 H       1  LIG1        0.1938
     12 H          -2.3758    1.1265    0.0000 H       1  LIG1        0.1048
     13 H          -0.7075   -1.7632    0.0000 H       1  LIG1        0.1035
@<TRIPOS>BOND
     1     1     2    2
     2     2     3   ar
     3     3     4   ar
     4     4     5   ar
     5     5     6   ar
     6     6     7   ar
     7     7     8   ar
     8     8     9   ar
     9     9    10   ar
    10     2    10   ar
    11     5    10   ar
    12     3    11    1
    13     7    12    1
    14     9    13    1
