@<TRIPOS>MOLECULE
O=c1ccc2c[nH]cc2[nH]1
 16 17 0 0 0
SMALL
GASTEIGER
Energy = 0

@<TRIPOS>ATOM
      1 O           1.7485    0.7091    0.0000 O.2     1  LIG1       -0.2679
      2 C           1.0341    0.2966    0.0000 C.ar    1  LIG1        0.2492
      3 N           0.3196    0.7091    0.0000 N.ar    1  LIG1       -0.3209
      4 C          -0.3949    0.2966    0.0000 C.ar    1  LIG1        0.0666
      5 C          -1.1795    0.5515    0.0000 C.ar    1  LIG1        0.0259
      6 N          -1.6644   -0.1159    0.0000 N.ar    1  LIG1       -0.3647
      7 C          -1.1795   -0.7833    0.0000 C.ar    1  LIG1        0.0108
      8 C          -0.3949   -0.5284    0.0000 C.ar    1  LIG1        0.0158
      9 C           0.3196   -0.9409    0.0000 C.ar    1  LIG1       -0.0461
     10 C           1.0341   -0.5284    0.0000 C.ar    1  LIG1        0.0034
     11 H           0.3196    1.7916    0.0000 H       1  LIG1        0.1690
     12 H          -1.5199    1.5991    0.0000 H       1  LIG1        0.0828
     13 H          -2.7469   -0.1159    0.0000 H       1  LIG1        0.1648
     14 H          -1.5199   -1.8309    0.0000 H       1  LIG1        0.0813
     15 H           0.3196   -2.0424    0.0000 H       1  LIG1        0.0626
     16 H           1.9880   -1.0792    0.0000 H       1  LIG1        0.0672
@<TRIPOS>BOND
     1     1     2    2
     2     2     3   ar
     3     3     4   ar
     4     4     5   ar
     5     5     6   ar
     6     6     7   ar
     7     7     8   ar
     8     4     8   ar
     9     8     9   ar
    10     9    10   ar
    11     2    10   ar
    12     3    11    1
    13     5    12    1
    14     6    13    1
    15     7    14    1
    16     9    15    1
    17    10    16    1
