@<TRIPOS>MOLECULE
c1cc2cn[nH]n2c1
 13 14 0 0 0
SMALL
GASTEIGER
Energy = 0

@<TRIPOS>ATOM
      1 N           0.7445   -0.6463    0.0000 N.ar    1  LIG1       -0.2127
      2 N           1.2294    0.0211    0.0000 N.ar    1  LIG1       -0.1640
      3 C           0.7445    0.6886    0.0000 C.ar    1  LIG1        0.0746
      4 C          -0.0402    0.4336    0.0000 C.ar    1  LIG1        0.0845
      5 C          -0.8248    0.6886    0.0000 C.ar    1  LIG1       -0.0333
      6 C          -1.3097    0.0211    0.0000 C.ar    1  LIG1       -0.0415
      7 C          -0.8248   -0.6463    0.0000 C.ar    1  LIG1        0.0293
      8 N          -0.0402   -0.3914    0.0000 N.ar    1  LIG1       -0.2450
      9 H           1.0790   -1.6758    0.0000 H       1  LIG1        0.2109
     10 H           1.0849    1.7362    0.0000 H       1  LIG1        0.0869
     11 H          -1.1652    1.7362    0.0000 H       1  LIG1        0.0640
     12 H          -2.4112    0.0211    0.0000 H       1  LIG1        0.0633
     13 H          -1.1652   -1.6939    0.0000 H       1  LIG1        0.0830
@<TRIPOS>BOND
     1     1     2   ar
     2     2     3   ar
     3     3     4   ar
     4     4     5   ar
     5     5     6   ar
     6     6     7   ar
     7     7     8   ar
     8     1     8   ar
     9     4     8   ar
    10     1     9    1
    11     3    10    1
    12     5    11    1
    13     6    12    1
    14     7    13    1
