@<TRIPOS>MOLECULE
Cn1ccc(=O)c2cc[nH]c12
 19 20 0 0 0
SMALL
GASTEIGER
Energy = 0

@<TRIPOS>ATOM
      1 C          -0.4485   -1.6757    0.0000 C.3     1  LIG1        0.0132
      2 N          -0.4485   -0.8507    0.0000 N.ar    1  LIG1       -0.3362
      3 C          -1.1630   -0.4382    0.0000 C.ar    1  LIG1        0.0097
      4 C          -1.1630    0.3868    0.0000 C.ar    1  LIG1        0.0019
      5 C          -0.4485    0.7993    0.0000 C.ar    1  LIG1        0.1909
      6 O          -0.4485    1.6243    0.0000 O.2     1  LIG1       -0.2871
      7 C           0.2660    0.3868    0.0000 C.ar    1  LIG1        0.0636
      8 C           0.2660   -0.4382    0.0000 C.ar    1  LIG1        0.1219
      9 N           1.0506   -0.6932    0.0000 N.ar    1  LIG1       -0.3471
     10 C           1.5355   -0.0257    0.0000 C.ar    1  LIG1        0.0042
     11 C           1.0506    0.6417    0.0000 C.ar    1  LIG1       -0.0315
     12 H          -1.5231   -2.0562    0.0000 H       1  LIG1        0.0456
     13 H           0.1100   -2.0704    0.9121 H       1  LIG1        0.0456
     14 H           0.0817   -2.0504   -0.9370 H       1  LIG1        0.0456
     15 H          -2.1169   -0.9890    0.0000 H       1  LIG1        0.0810
     16 H          -2.1169    0.9376    0.0000 H       1  LIG1        0.0670
     17 H           1.3851   -1.7227    0.0000 H       1  LIG1        0.1667
     18 H           2.6370   -0.0257    0.0000 H       1  LIG1        0.0807
     19 H           1.3910    1.6893    0.0000 H       1  LIG1        0.0640
@<TRIPOS>BOND
     1     1     2    1
     2     2     3   ar
     3     3     4   ar
     4     4     5   ar
     5     5     6    2
     6     5     7   ar
     7     7     8   ar
     8     2     8   ar
     9     8     9   ar
    10     9    10   ar
    11    10    11   ar
    12     7    11   ar
    13     1    12    1
    14     1    13    1
    15     1    14    1
    16     3    15    1
    17     4    16    1
    18     9    17    1
    19    10    18    1
    20    11    19    1
