@<TRIPOS>MOLECULE
c1n[nH]c2cn[nH]c12
 12 13 0 0 0
SMALL
GASTEIGER
Energy = 0

@<TRIPOS>ATOM
      1 N           0.7846   -0.6674    0.0000 N.ar    1  LIG1       -0.2739
      2 N           1.2695   -0.0000    0.0000 N.ar    1  LIG1       -0.1796
      3 C           0.7846    0.6674    0.0000 C.ar    1  LIG1        0.0746
      4 C           0.0000    0.4125    0.0000 C.ar    1  LIG1        0.1030
      5 C           0.0000   -0.4125    0.0000 C.ar    1  LIG1        0.1030
      6 C          -0.7846   -0.6674    0.0000 C.ar    1  LIG1        0.0746
      7 N          -1.2695    0.0000    0.0000 N.ar    1  LIG1       -0.1796
      8 N          -0.7846    0.6674    0.0000 N.ar    1  LIG1       -0.2739
      9 H           1.1191   -1.6969    0.0000 H       1  LIG1        0.1890
     10 H           1.1250    1.7150    0.0000 H       1  LIG1        0.0869
     11 H          -1.1250   -1.7150    0.0000 H       1  LIG1        0.0869
     12 H          -1.1191    1.6969    0.0000 H       1  LIG1        0.1890
@<TRIPOS>BOND
     1     1     2   ar
     2     2     3   ar
     3     3     4   ar
     4     4     5   ar
     5     1     5   ar
     6     5     6   ar
     7     6     7   ar
     8     7     8   ar
     9     4     8   ar
    10     1     9    1
    11     3    10    1
    12     6    11    1
    13     8    12    1
