@<TRIPOS>MOLECULE
O=c1[nH]nc2cc[nH]cc12
 15 16 0 0 0
SMALL
GASTEIGER
Energy = 0

@<TRIPOS>ATOM
      1 O           1.0358   -1.2774    0.0000 O.2     1  LIG1       -0.2657
      2 C           0.7809   -0.4928    0.0000 C.ar    1  LIG1        0.2753
      3 N           1.2658    0.1747    0.0000 N.ar    1  LIG1       -0.2421
      4 N           0.7809    0.8421    0.0000 N.ar    1  LIG1       -0.1707
      5 C          -0.0038    0.5872    0.0000 C.ar    1  LIG1        0.0992
      6 C          -0.7182    0.9997    0.0000 C.ar    1  LIG1       -0.0179
      7 C          -1.4327    0.5872    0.0000 C.ar    1  LIG1        0.0037
      8 N          -1.4327   -0.2378    0.0000 N.ar    1  LIG1       -0.3662
      9 C          -0.7182   -0.6503    0.0000 C.ar    1  LIG1        0.0162
     10 C          -0.0038   -0.2378    0.0000 C.ar    1  LIG1        0.0836
     11 H           2.3483    0.1747    0.0000 H       1  LIG1        0.1921
     12 H          -0.7182    2.1012    0.0000 H       1  LIG1        0.0654
     13 H          -2.3866    1.1380    0.0000 H       1  LIG1        0.0807
     14 H          -2.3702   -0.7791    0.0000 H       1  LIG1        0.1648
     15 H          -0.7182   -1.7518    0.0000 H       1  LIG1        0.0815
@<TRIPOS>BOND
     1     1     2    2
     2     2     3   ar
     3     3     4   ar
     4     4     5   ar
     5     5     6   ar
     6     6     7   ar
     7     7     8   ar
     8     8     9   ar
     9     9    10   ar
    10     2    10   ar
    11     5    10   ar
    12     3    11    1
    13     6    12    1
    14     7    13    1
    15     8    14    1
    16     9    15    1
