@<TRIPOS>MOLECULE
c1cc2ncccn2c1
 15 16 0 0 0
SMALL
GASTEIGER
Energy = 0

@<TRIPOS>ATOM
      1 C           1.2611    0.4198    0.0000 C.ar    1  LIG1       -0.0270
      2 C           0.5466    0.8323    0.0000 C.ar    1  LIG1        0.0125
      3 N          -0.1679    0.4198    0.0000 N.ar    1  LIG1       -0.3080
      4 C          -0.9525    0.6748    0.0000 C.ar    1  LIG1        0.0112
      5 C          -1.4374    0.0073    0.0000 C.ar    1  LIG1       -0.0417
      6 C          -0.9525   -0.6601    0.0000 C.ar    1  LIG1       -0.0175
      7 C          -0.1679   -0.4052    0.0000 C.ar    1  LIG1        0.1374
      8 N           0.5466   -0.8177    0.0000 N.ar    1  LIG1       -0.2375
      9 C           1.2611   -0.4052    0.0000 C.ar    1  LIG1        0.0313
     10 H           2.2150    0.9706    0.0000 H       1  LIG1        0.0647
     11 H           0.5466    1.9338    0.0000 H       1  LIG1        0.0814
     12 H          -1.2929    1.7224    0.0000 H       1  LIG1        0.0813
     13 H          -2.5389    0.0073    0.0000 H       1  LIG1        0.0633
     14 H          -1.2929   -1.7077    0.0000 H       1  LIG1        0.0655
     15 H           2.2150   -0.9560    0.0000 H       1  LIG1        0.0831
@<TRIPOS>BOND
     1     1     2   ar
     2     2     3   ar
     3     3     4   ar
     4     4     5   ar
     5     5     6   ar
     6     6     7   ar
     7     3     7   ar
     8     7     8   ar
     9     8     9   ar
    10     1     9   ar
    11     1    10    1
    12     2    11    1
    13     4    12    1
    14     5    13    1
    15     6    14    1
    16     9    15    1
