@<TRIPOS>MOLECULE
O=c1cnc2c[nH]c(=O)nc2[nH]1
 16 17 0 0 0
SMALL
GASTEIGER
Energy = 0

@<TRIPOS>ATOM
      1 O           2.1523    0.6550    0.0000 O.2     1  LIG1       -0.2662
      2 C           1.4379    0.2425    0.0000 C.ar    1  LIG1        0.2684
      3 N           0.7234    0.6550    0.0000 N.ar    1  LIG1       -0.3043
      4 C           0.0089    0.2425    0.0000 C.ar    1  LIG1        0.1661
      5 N          -0.7056    0.6550    0.0000 N.ar    1  LIG1       -0.1736
      6 C          -1.4200    0.2425    0.0000 C.ar    1  LIG1        0.3478
      7 O          -2.1345    0.6550    0.0000 O.2     1  LIG1       -0.2447
      8 N          -1.4200   -0.5825    0.0000 N.ar    1  LIG1       -0.3108
      9 C          -0.7056   -0.9950    0.0000 C.ar    1  LIG1        0.0353
     10 C           0.0089   -0.5825    0.0000 C.ar    1  LIG1        0.1224
     11 N           0.7234   -0.9950    0.0000 N.ar    1  LIG1       -0.2451
     12 C           1.4379   -0.5825    0.0000 C.ar    1  LIG1        0.0927
     13 H           0.7234    1.7375    0.0000 H       1  LIG1        0.1704
     14 H          -2.3575   -1.1237    0.0000 H       1  LIG1        0.1699
     15 H          -0.7056   -2.0965    0.0000 H       1  LIG1        0.0831
     16 H           2.3918   -1.1333    0.0000 H       1  LIG1        0.0885
@<TRIPOS>BOND
     1     1     2    2
     2     2     3   ar
     3     3     4   ar
     4     4     5   ar
     5     5     6   ar
     6     6     7    2
     7     6     8   ar
     8     8     9   ar
     9     9    10   ar
    10     4    10   ar
    11    10    11   ar
    12    11    12   ar
    13     2    12   ar
    14     3    13    1
    15     8    14    1
    16     9    15    1
    17    12    16    1
