@<TRIPOS>MOLECULE
O=c1[nH][nH]c2[nH]ccc(=O)c12
 16 17 0 0 0
SMALL
GASTEIGER
Energy = 0

@<TRIPOS>ATOM
      1 O           1.1047   -1.1327    0.0000 O.2     1  LIG1       -0.2656
      2 C           0.8498   -0.3481    0.0000 C.ar    1  LIG1        0.2775
      3 N           1.3347    0.3194    0.0000 N.ar    1  LIG1       -0.2639
      4 N           0.8498    0.9868    0.0000 N.ar    1  LIG1       -0.2816
      5 C           0.0651    0.7319    0.0000 C.ar    1  LIG1        0.1396
      6 C           0.0651   -0.0931    0.0000 C.ar    1  LIG1        0.1287
      7 C          -0.6493   -0.5056    0.0000 C.ar    1  LIG1        0.1962
      8 O          -0.6493   -1.3306    0.0000 O.2     1  LIG1       -0.2869
      9 C          -1.3638   -0.0931    0.0000 C.ar    1  LIG1        0.0019
     10 C          -1.3638    0.7319    0.0000 C.ar    1  LIG1        0.0071
     11 N          -0.6493    1.1444    0.0000 N.ar    1  LIG1       -0.3459
     12 H           2.4172    0.3194    0.0000 H       1  LIG1        0.1900
     13 H           1.1843    2.0163    0.0000 H       1  LIG1        0.1884
     14 H          -2.3177   -0.6439    0.0000 H       1  LIG1        0.0670
     15 H          -2.3177    1.2827    0.0000 H       1  LIG1        0.0808
     16 H          -0.6493    2.2269    0.0000 H       1  LIG1        0.1667
@<TRIPOS>BOND
     1     1     2    2
     2     2     3   ar
     3     3     4   ar
     4     4     5   ar
     5     5     6   ar
     6     2     6   ar
     7     6     7   ar
     8     7     8    2
     9     7     9   ar
    10     9    10   ar
    11    10    11   ar
    12     5    11   ar
    13     3    12    1
    14     4    13    1
    15     9    14    1
    16    10    15    1
    17    11    16    1
