@<TRIPOS>MOLECULE
Cn1cc2[nH]cnc(=O)c2n1
 17 18 0 0 0
SMALL
GASTEIGER
Energy = 0

@<TRIPOS>ATOM
      1 C           2.1212    0.1867    0.0000 C.3     1  LIG1        0.0303
      2 N           1.2962    0.1867    0.0000 N.ar    1  LIG1       -0.2717
      3 C           0.8113    0.8542    0.0000 C.ar    1  LIG1        0.0493
      4 C           0.0267    0.5992    0.0000 C.ar    1  LIG1        0.0910
      5 N          -0.6878    1.0117    0.0000 N.ar    1  LIG1       -0.3429
      6 C          -1.4023    0.5992    0.0000 C.ar    1  LIG1        0.0978
      7 N          -1.4023   -0.2258    0.0000 N.ar    1  LIG1       -0.1977
      8 C          -0.6878   -0.6383    0.0000 C.ar    1  LIG1        0.3008
      9 O          -0.6878   -1.4633    0.0000 O.2     1  LIG1       -0.2634
     10 C           0.0267   -0.2258    0.0000 C.ar    1  LIG1        0.1747
     11 N           0.8113   -0.4807    0.0000 N.ar    1  LIG1       -0.1644
     12 H           2.5017    1.2613    0.0000 H       1  LIG1        0.0473
     13 H           2.5159   -0.3718   -0.9121 H       1  LIG1        0.0473
     14 H           2.4959   -0.3435    0.9370 H       1  LIG1        0.0473
     15 H           1.1517    1.9018    0.0000 H       1  LIG1        0.0847
     16 H          -0.6878    2.0942    0.0000 H       1  LIG1        0.1668
     17 H          -2.3562    1.1500    0.0000 H       1  LIG1        0.1028
@<TRIPOS>BOND
     1     1     2    1
     2     2     3   ar
     3     3     4   ar
     4     4     5   ar
     5     5     6   ar
     6     6     7   ar
     7     7     8   ar
     8     8     9    2
     9     8    10   ar
    10     4    10   ar
    11    10    11   ar
    12     2    11   ar
    13     1    12    1
    14     1    13    1
    15     1    14    1
    16     3    15    1
    17     5    16    1
    18     6    17    1
