@<TRIPOS>MOLECULE
c1nc2nc[nH]nc2n1
 12 13 0 0 0
SMALL
GASTEIGER
Energy = 0

@<TRIPOS>ATOM
      1 N           1.2599   -0.4055    0.0000 N.ar    1  LIG1       -0.2648
      2 C           1.2599    0.4195    0.0000 C.ar    1  LIG1        0.1121
      3 N           0.5454    0.8320    0.0000 N.ar    1  LIG1       -0.2137
      4 C          -0.1691    0.4195    0.0000 C.ar    1  LIG1        0.2022
      5 N          -0.9537    0.6744    0.0000 N.ar    1  LIG1       -0.2131
      6 C          -1.4386    0.0070    0.0000 C.ar    1  LIG1        0.1210
      7 N          -0.9537   -0.6605    0.0000 N.ar    1  LIG1       -0.2118
      8 C          -0.1691   -0.4055    0.0000 C.ar    1  LIG1        0.2184
      9 N           0.5454   -0.8180    0.0000 N.ar    1  LIG1       -0.1492
     10 H           2.1974   -0.9468    0.0000 H       1  LIG1        0.1900
     11 H           2.2138    0.9703    0.0000 H       1  LIG1        0.1041
     12 H          -2.5401    0.0070    0.0000 H       1  LIG1        0.1048
@<TRIPOS>BOND
     1     1     2   ar
     2     2     3   ar
     3     3     4   ar
     4     4     5   ar
     5     5     6   ar
     6     6     7   ar
     7     7     8   ar
     8     4     8   ar
     9     8     9   ar
    10     1     9   ar
    11     1    10    1
    12     2    11    1
    13     6    12    1
