@<TRIPOS>MOLECULE
Cn1ncn2nccc12
 15 16 0 0 0
SMALL
GASTEIGER
Energy = 0

@<TRIPOS>ATOM
      1 C           0.9102   -1.3089    0.0000 C.3     1  LIG1        0.0325
      2 N           0.6552   -0.5243    0.0000 N.ar    1  LIG1       -0.2485
      3 N           1.1402    0.1431    0.0000 N.ar    1  LIG1       -0.1581
      4 C           0.6552    0.8106    0.0000 C.ar    1  LIG1        0.1400
      5 N          -0.1294    0.5556    0.0000 N.ar    1  LIG1       -0.2023
      6 N          -0.9140    0.8106    0.0000 N.ar    1  LIG1       -0.1720
      7 C          -1.3989    0.1431    0.0000 C.ar    1  LIG1        0.0519
      8 C          -0.9140   -0.5243    0.0000 C.ar    1  LIG1        0.0021
      9 C          -0.1294   -0.2694    0.0000 C.ar    1  LIG1        0.1539
     10 H           2.0498   -1.3387    0.0000 H       1  LIG1        0.0473
     11 H           0.5011   -1.8569   -0.9121 H       1  LIG1        0.0473
     12 H           0.5217   -1.8292    0.9370 H       1  LIG1        0.0473
     13 H           0.9955    1.8582    0.0000 H       1  LIG1        0.1066
     14 H          -2.5004    0.1431    0.0000 H       1  LIG1        0.0848
     15 H          -1.2544   -1.5719    0.0000 H       1  LIG1        0.0670
@<TRIPOS>BOND
     1     1     2    1
     2     2     3   ar
     3     3     4   ar
     4     4     5   ar
     5     5     6   ar
     6     6     7   ar
     7     7     8   ar
     8     8     9   ar
     9     2     9   ar
    10     5     9   ar
    11     1    10    1
    12     1    11    1
    13     1    12    1
    14     4    13    1
    15     7    14    1
    16     8    15    1
