@<TRIPOS>MOLECULE
c1n[nH]c2cocc12
 12 13 0 0 0
SMALL
GASTEIGER
Energy = 0

@<TRIPOS>ATOM
      1 N           0.7939   -0.6546    0.0000 N.ar    1  LIG1       -0.2739
      2 N           1.2788    0.0128    0.0000 N.ar    1  LIG1       -0.1810
      3 C           0.7939    0.6802    0.0000 C.ar    1  LIG1        0.0599
      4 C           0.0093    0.4253    0.0000 C.ar    1  LIG1        0.0572
      5 C          -0.7754    0.6802    0.0000 C.ar    1  LIG1        0.1024
      6 O          -1.2603    0.0128    0.0000 O.2     1  LIG1       -0.4682
      7 C          -0.7754   -0.6546    0.0000 C.ar    1  LIG1        0.1170
      8 C           0.0093   -0.3997    0.0000 C.ar    1  LIG1        0.1033
      9 H           1.1284   -1.6841    0.0000 H       1  LIG1        0.1890
     10 H           1.1343    1.7278    0.0000 H       1  LIG1        0.0855
     11 H          -1.1158    1.7278    0.0000 H       1  LIG1        0.1036
     12 H          -1.1158   -1.7022    0.0000 H       1  LIG1        0.1051
@<TRIPOS>BOND
     1     1     2   ar
     2     2     3   ar
     3     3     4   ar
     4     4     5   ar
     5     5     6   ar
     6     6     7   ar
     7     7     8   ar
     8     1     8   ar
     9     4     8   ar
    10     1     9    1
    11     3    10    1
    12     5    11    1
    13     7    12    1
