@<TRIPOS>MOLECULE
Cn1nc2cc[nH]c(=O)n2c1=O
 18 19 0 0 0
SMALL
GASTEIGER
Energy = 0

@<TRIPOS>ATOM
      1 C           2.0058    0.3120    0.0000 C.3     1  LIG1        0.0355
      2 N           1.1808    0.3120    0.0000 N.ar    1  LIG1       -0.2153
      3 N           0.6958    0.9794    0.0000 N.ar    1  LIG1       -0.1488
      4 C          -0.0888    0.7245    0.0000 C.ar    1  LIG1        0.1673
      5 C          -0.8033    1.1370    0.0000 C.ar    1  LIG1       -0.0008
      6 C          -1.5177    0.7245    0.0000 C.ar    1  LIG1        0.0099
      7 N          -1.5177   -0.1005    0.0000 N.ar    1  LIG1       -0.3138
      8 C          -0.8033   -0.5130    0.0000 C.ar    1  LIG1        0.3362
      9 O          -0.8033   -1.3380    0.0000 O.2     1  LIG1       -0.2460
     10 N          -0.0888   -0.1005    0.0000 N.ar    1  LIG1       -0.1945
     11 C           0.6958   -0.3555    0.0000 C.ar    1  LIG1        0.3547
     12 O           0.9508   -1.1401    0.0000 O.2     1  LIG1       -0.2443
     13 H           2.3863    1.3866    0.0000 H       1  LIG1        0.0474
     14 H           2.4005   -0.2465   -0.9121 H       1  LIG1        0.0474
     15 H           2.3805   -0.2182    0.9370 H       1  LIG1        0.0474
     16 H          -0.8033    2.2385    0.0000 H       1  LIG1        0.0669
     17 H          -2.4716    1.2752    0.0000 H       1  LIG1        0.0809
     18 H          -2.4552   -0.6417    0.0000 H       1  LIG1        0.1698
@<TRIPOS>BOND
     1     1     2    1
     2     2     3   ar
     3     3     4   ar
     4     4     5   ar
     5     5     6   ar
     6     6     7   ar
     7     7     8   ar
     8     8     9    2
     9     8    10   ar
    10     4    10   ar
    11    10    11   ar
    12     2    11   ar
    13    11    12    2
    14     1    13    1
    15     1    14    1
    16     1    15    1
    17     5    16    1
    18     6    17    1
    19     7    18    1
