@<TRIPOS>MOLECULE
Cn1cc2ccnnc2n1
 16 17 0 0 0
SMALL
GASTEIGER
Energy = 0

@<TRIPOS>ATOM
      1 C           2.0353    0.0297    0.0000 C.3     1  LIG1        0.0303
      2 N           1.2103    0.0297    0.0000 N.ar    1  LIG1       -0.2718
      3 C           0.7254    0.6971    0.0000 C.ar    1  LIG1        0.0346
      4 C          -0.0592    0.4422    0.0000 C.ar    1  LIG1        0.0417
      5 C          -0.7737    0.8547    0.0000 C.ar    1  LIG1       -0.0296
      6 C          -1.4882    0.4422    0.0000 C.ar    1  LIG1        0.0507
      7 N          -1.4882   -0.3828    0.0000 N.ar    1  LIG1       -0.1556
      8 N          -0.7737   -0.7953    0.0000 N.ar    1  LIG1       -0.1274
      9 C          -0.0592   -0.3828    0.0000 C.ar    1  LIG1        0.2027
     10 N           0.7254   -0.6378    0.0000 N.ar    1  LIG1       -0.1495
     11 H           2.4158    1.1043    0.0000 H       1  LIG1        0.0473
     12 H           2.4300   -0.5288   -0.9121 H       1  LIG1        0.0473
     13 H           2.4100   -0.5005    0.9370 H       1  LIG1        0.0473
     14 H           1.0658    1.7447    0.0000 H       1  LIG1        0.0833
     15 H          -0.7737    1.9562    0.0000 H       1  LIG1        0.0641
     16 H          -2.4421    0.9930    0.0000 H       1  LIG1        0.0848
@<TRIPOS>BOND
     1     1     2    1
     2     2     3   ar
     3     3     4   ar
     4     4     5   ar
     5     5     6   ar
     6     6     7   ar
     7     7     8   ar
     8     8     9   ar
     9     4     9   ar
    10     9    10   ar
    11     2    10   ar
    12     1    11    1
    13     1    12    1
    14     1    13    1
    15     3    14    1
    16     5    15    1
    17     6    16    1
