@<TRIPOS>MOLECULE
O=c1nc2occc2c[nH]1
 14 15 0 0 0
SMALL
GASTEIGER
Energy = 0

@<TRIPOS>ATOM
      1 O           1.7434   -0.6987    0.0000 O.2     1  LIG1       -0.2446
      2 C           1.0289   -0.2862    0.0000 C.ar    1  LIG1        0.3489
      3 N           1.0289    0.5388    0.0000 N.ar    1  LIG1       -0.3122
      4 C           0.3144    0.9513    0.0000 C.ar    1  LIG1        0.0187
      5 C          -0.4000    0.5388    0.0000 C.ar    1  LIG1        0.0559
      6 C          -1.1846    0.7938    0.0000 C.ar    1  LIG1       -0.0131
      7 C          -1.6696    0.1263    0.0000 C.ar    1  LIG1        0.0951
      8 O          -1.1846   -0.5411    0.0000 O.2     1  LIG1       -0.4449
      9 C          -0.4000   -0.2862    0.0000 C.ar    1  LIG1        0.2328
     10 N           0.3144   -0.6987    0.0000 N.ar    1  LIG1       -0.1569
     11 H           1.9664    1.0801    0.0000 H       1  LIG1        0.1699
     12 H           0.3144    2.0528    0.0000 H       1  LIG1        0.0816
     13 H          -1.5249    1.8414    0.0000 H       1  LIG1        0.0656
     14 H          -2.7711    0.1263    0.0000 H       1  LIG1        0.1030
@<TRIPOS>BOND
     1     1     2    2
     2     2     3   ar
     3     3     4   ar
     4     4     5   ar
     5     5     6   ar
     6     6     7   ar
     7     7     8   ar
     8     8     9   ar
     9     5     9   ar
    10     9    10   ar
    11     2    10   ar
    12     3    11    1
    13     4    12    1
    14     6    13    1
    15     7    14    1
