@<TRIPOS>MOLECULE
O=c1[nH]ccc2cn[nH]c(=O)c12
 17 18 0 0 0
SMALL
GASTEIGER
Energy = 0

@<TRIPOS>ATOM
      1 O           0.7325   -1.3108    0.0000 O.2     1  LIG1       -0.2671
      2 C           0.7325   -0.4858    0.0000 C.ar    1  LIG1        0.2618
      3 N           1.4470   -0.0733    0.0000 N.ar    1  LIG1       -0.3284
      4 C           1.4470    0.7517    0.0000 C.ar    1  LIG1        0.0056
      5 C           0.7325    1.1642    0.0000 C.ar    1  LIG1       -0.0361
      6 C           0.0180    0.7517    0.0000 C.ar    1  LIG1        0.0137
      7 C           0.0180   -0.0733    0.0000 C.ar    1  LIG1        0.1134
      8 C          -0.6964   -0.4858    0.0000 C.ar    1  LIG1        0.2777
      9 O          -0.6964   -1.3108    0.0000 O.2     1  LIG1       -0.2656
     10 N          -1.4109   -0.0733    0.0000 N.ar    1  LIG1       -0.2426
     11 N          -1.4109    0.7517    0.0000 N.ar    1  LIG1       -0.1787
     12 C          -0.6964    1.1642    0.0000 C.ar    1  LIG1        0.0559
     13 H           2.3845   -0.6146    0.0000 H       1  LIG1        0.1683
     14 H           2.4009    1.3025    0.0000 H       1  LIG1        0.0808
     15 H           0.7325    2.2657    0.0000 H       1  LIG1        0.0639
     16 H          -2.3484   -0.6146    0.0000 H       1  LIG1        0.1921
     17 H          -0.6964    2.2657    0.0000 H       1  LIG1        0.0853
@<TRIPOS>BOND
     1     1     2    2
     2     2     3   ar
     3     3     4   ar
     4     4     5   ar
     5     5     6   ar
     6     6     7   ar
     7     2     7   ar
     8     7     8   ar
     9     8     9    2
    10     8    10   ar
    11    10    11   ar
    12    11    12   ar
    13     6    12   ar
    14     3    13    1
    15     4    14    1
    16     5    15    1
    17    10    16    1
    18    12    17    1
