@<TRIPOS>MOLECULE
Cn1cnc2ccoc12
 15 16 0 0 0
SMALL
GASTEIGER
Energy = 0

@<TRIPOS>ATOM
      1 C           0.9320   -1.2789    0.0000 C.3     1  LIG1        0.0160
      2 N           0.6770   -0.4943    0.0000 N.ar    1  LIG1       -0.3041
      3 C           1.1620    0.1732    0.0000 C.ar    1  LIG1        0.0991
      4 N           0.6770    0.8406    0.0000 N.ar    1  LIG1       -0.2323
      5 C          -0.1076    0.5857    0.0000 C.ar    1  LIG1        0.1284
      6 C          -0.1076   -0.2393    0.0000 C.ar    1  LIG1        0.2273
      7 O          -0.8922   -0.4943    0.0000 O.2     1  LIG1       -0.4450
      8 C          -1.3771    0.1732    0.0000 C.ar    1  LIG1        0.0966
      9 C          -0.8922    0.8406    0.0000 C.ar    1  LIG1        0.0039
     10 H           2.0716   -1.3087    0.0000 H       1  LIG1        0.0457
     11 H           0.5229   -1.8269   -0.9121 H       1  LIG1        0.0457
     12 H           0.5435   -1.7992    0.9370 H       1  LIG1        0.0457
     13 H           2.2635    0.1732    0.0000 H       1  LIG1        0.1030
     14 H          -2.4786    0.1732    0.0000 H       1  LIG1        0.1031
     15 H          -1.2326    1.8882    0.0000 H       1  LIG1        0.0671
@<TRIPOS>BOND
     1     1     2    1
     2     2     3   ar
     3     3     4   ar
     4     4     5   ar
     5     5     6   ar
     6     2     6   ar
     7     6     7   ar
     8     7     8   ar
     9     8     9   ar
    10     5     9   ar
    11     1    10    1
    12     1    11    1
    13     1    12    1
    14     3    13    1
    15     8    14    1
    16     9    15    1
