@<TRIPOS>MOLECULE
Cn1c(=O)ccn2c(=O)[nH]nc12
 18 19 0 0 0
SMALL
GASTEIGER
Energy = 0

@<TRIPOS>ATOM
      1 C           0.4586   -1.5754    0.0000 C.3     1  LIG1        0.0181
      2 N           0.4586   -0.7504    0.0000 N.ar    1  LIG1       -0.2803
      3 C           1.1731   -0.3379    0.0000 C.ar    1  LIG1        0.2551
      4 O           1.8876   -0.7504    0.0000 O.2     1  LIG1       -0.2676
      5 C           1.1731    0.4871    0.0000 C.ar    1  LIG1        0.0198
      6 C           0.4586    0.8996    0.0000 C.ar    1  LIG1        0.0226
      7 N          -0.2559    0.4871    0.0000 N.ar    1  LIG1       -0.2364
      8 C          -1.0405    0.7420    0.0000 C.ar    1  LIG1        0.3496
      9 O          -1.2954    1.5266    0.0000 O.2     1  LIG1       -0.2446
     10 N          -1.5254    0.0746    0.0000 N.ar    1  LIG1       -0.2245
     11 N          -1.0405   -0.5929    0.0000 N.ar    1  LIG1       -0.1322
     12 C          -0.2559   -0.3379    0.0000 C.ar    1  LIG1        0.2391
     13 H           1.5332   -1.9559    0.0000 H       1  LIG1        0.0458
     14 H          -0.0999   -1.9701   -0.9121 H       1  LIG1        0.0458
     15 H          -0.0716   -1.9501    0.9370 H       1  LIG1        0.0458
     16 H           2.1270    1.0379    0.0000 H       1  LIG1        0.0686
     17 H           0.4586    2.0011    0.0000 H       1  LIG1        0.0817
     18 H          -2.6079    0.0746    0.0000 H       1  LIG1        0.1938
@<TRIPOS>BOND
     1     1     2    1
     2     2     3   ar
     3     3     4    2
     4     3     5   ar
     5     5     6   ar
     6     6     7   ar
     7     7     8   ar
     8     8     9    2
     9     8    10   ar
    10    10    11   ar
    11    11    12   ar
    12     2    12   ar
    13     7    12   ar
    14     1    13    1
    15     1    14    1
    16     1    15    1
    17     5    16    1
    18     6    17    1
    19    10    18    1
