@<TRIPOS>MOLECULE
Cn1nc2nccnc2n1
 15 16 0 0 0
SMALL
GASTEIGER
Energy = 0

@<TRIPOS>ATOM
      1 C           2.0132    0.0000    0.0000 C.3     1  LIG1        0.0500
      2 N           1.1882    0.0000    0.0000 N.ar    1  LIG1       -0.1824
      3 N           0.7033    0.6674    0.0000 N.ar    1  LIG1       -0.1305
      4 C          -0.0813    0.4125    0.0000 C.ar    1  LIG1        0.2205
      5 N          -0.7958    0.8250    0.0000 N.ar    1  LIG1       -0.2301
      6 C          -1.5103    0.4125    0.0000 C.ar    1  LIG1        0.0482
      7 C          -1.5103   -0.4125    0.0000 C.ar    1  LIG1        0.0482
      8 N          -0.7958   -0.8250    0.0000 N.ar    1  LIG1       -0.2301
      9 C          -0.0813   -0.4125    0.0000 C.ar    1  LIG1        0.2205
     10 N           0.7033   -0.6674    0.0000 N.ar    1  LIG1       -0.1305
     11 H           2.3937    1.0746    0.0000 H       1  LIG1        0.0490
     12 H           2.4079   -0.5585   -0.9121 H       1  LIG1        0.0490
     13 H           2.3879   -0.5302    0.9370 H       1  LIG1        0.0490
     14 H          -2.4642    0.9633    0.0000 H       1  LIG1        0.0846
     15 H          -2.4642   -0.9633    0.0000 H       1  LIG1        0.0846
@<TRIPOS>BOND
     1     1     2    1
     2     2     3   ar
     3     3     4   ar
     4     4     5   ar
     5     5     6   ar
     6     6     7   ar
     7     7     8   ar
     8     8     9   ar
     9     4     9   ar
    10     9    10   ar
    11     2    10   ar
    12     1    11    1
    13     1    12    1
    14     1    13    1
    15     6    14    1
    16     7    15    1
