@<TRIPOS>MOLECULE
O=c1nc2ncccn2o1
 13 14 0 0 0
SMALL
GASTEIGER
Energy = 0

@<TRIPOS>ATOM
      1 O           1.9499   -0.0038    0.0000 O.2     1  LIG1       -0.2187
      2 C           1.1249   -0.0038    0.0000 C.ar    1  LIG1        0.4625
      3 O           0.6400    0.6637    0.0000 O.2     1  LIG1       -0.3117
      4 N          -0.1446    0.4087    0.0000 N.ar    1  LIG1       -0.1413
      5 C          -0.8591    0.8212    0.0000 C.ar    1  LIG1        0.0502
      6 C          -1.5736    0.4087    0.0000 C.ar    1  LIG1       -0.0239
      7 C          -1.5736   -0.4163    0.0000 C.ar    1  LIG1        0.0330
      8 N          -0.8591   -0.8288    0.0000 N.ar    1  LIG1       -0.2180
      9 C          -0.1446   -0.4163    0.0000 C.ar    1  LIG1        0.2701
     10 N           0.6400   -0.6712    0.0000 N.ar    1  LIG1       -0.1347
     11 H          -0.8591    1.9227    0.0000 H       1  LIG1        0.0846
     12 H          -2.5275    0.9595    0.0000 H       1  LIG1        0.0648
     13 H          -2.5275   -0.9671    0.0000 H       1  LIG1        0.0831
@<TRIPOS>BOND
     1     1     2    2
     2     2     3   ar
     3     3     4   ar
     4     4     5   ar
     5     5     6   ar
     6     6     7   ar
     7     7     8   ar
     8     8     9   ar
     9     4     9   ar
    10     9    10   ar
    11     2    10   ar
    12     5    11    1
    13     6    12    1
    14     7    13    1
