@<TRIPOS>MOLECULE
Cn1cccc2[nH]c(=O)cc12
 19 20 0 0 0
SMALL
GASTEIGER
Energy = 0

@<TRIPOS>ATOM
      1 C           0.7693   -1.5063    0.0000 C.3     1  LIG1        0.0119
      2 N           0.7693   -0.6813    0.0000 N.ar    1  LIG1       -0.3484
      3 C           1.4837   -0.2688    0.0000 C.ar    1  LIG1        0.0049
      4 C           1.4837    0.5562    0.0000 C.ar    1  LIG1       -0.0436
      5 C           0.7693    0.9687    0.0000 C.ar    1  LIG1       -0.0349
      6 C           0.0548    0.5562    0.0000 C.ar    1  LIG1        0.0659
      7 N          -0.7298    0.8111    0.0000 N.ar    1  LIG1       -0.3208
      8 C          -1.2147    0.1437    0.0000 C.ar    1  LIG1        0.2512
      9 O          -2.0397    0.1437    0.0000 O.2     1  LIG1       -0.2678
     10 C          -0.7298   -0.5237    0.0000 C.ar    1  LIG1        0.0282
     11 C           0.0548   -0.2688    0.0000 C.ar    1  LIG1        0.0704
     12 H           1.8439   -1.8868    0.0000 H       1  LIG1        0.0456
     13 H           0.2108   -1.9010   -0.9121 H       1  LIG1        0.0456
     14 H           0.2391   -1.8810    0.9370 H       1  LIG1        0.0456
     15 H           2.4376   -0.8195    0.0000 H       1  LIG1        0.0809
     16 H           2.4376    1.1069    0.0000 H       1  LIG1        0.0633
     17 H           0.7693    2.0702    0.0000 H       1  LIG1        0.0639
     18 H          -1.0643    1.8406    0.0000 H       1  LIG1        0.1690
     19 H          -1.0702   -1.5713    0.0000 H       1  LIG1        0.0693
@<TRIPOS>BOND
     1     1     2    1
     2     2     3   ar
     3     3     4   ar
     4     4     5   ar
     5     5     6   ar
     6     6     7   ar
     7     7     8   ar
     8     8     9    2
     9     8    10   ar
    10    10    11   ar
    11     2    11   ar
    12     6    11   ar
    13     1    12    1
    14     1    13    1
    15     1    14    1
    16     3    15    1
    17     4    16    1
    18     5    17    1
    19     7    18    1
    20    10    19    1
