@<TRIPOS>MOLECULE
O=c1cnc2c(=O)[nH]ncc2[nH]1
 16 17 0 0 0
SMALL
GASTEIGER
Energy = 0

@<TRIPOS>ATOM
      1 O           2.0184    0.9075    0.0000 O.2     1  LIG1       -0.2662
      2 C           1.3039    0.4950    0.0000 C.ar    1  LIG1        0.2674
      3 N           0.5895    0.9075    0.0000 N.ar    1  LIG1       -0.3182
      4 C          -0.1250    0.4950    0.0000 C.ar    1  LIG1        0.0930
      5 C          -0.1250   -0.3300    0.0000 C.ar    1  LIG1        0.1543
      6 N           0.5895   -0.7425    0.0000 N.ar    1  LIG1       -0.2426
      7 C           1.3039   -0.3300    0.0000 C.ar    1  LIG1        0.0927
      8 C          -0.8395   -0.7425    0.0000 C.ar    1  LIG1        0.2922
      9 O          -0.8395   -1.5675    0.0000 O.2     1  LIG1       -0.2640
     10 N          -1.5539   -0.3300    0.0000 N.ar    1  LIG1       -0.2414
     11 N          -1.5539    0.4950    0.0000 N.ar    1  LIG1       -0.1772
     12 C          -0.8395    0.9075    0.0000 C.ar    1  LIG1        0.0734
     13 H           0.5895    1.9900    0.0000 H       1  LIG1        0.1690
     14 H           2.2578   -0.8807    0.0000 H       1  LIG1        0.0885
     15 H          -2.4914   -0.8712    0.0000 H       1  LIG1        0.1922
     16 H          -0.8395    2.0090    0.0000 H       1  LIG1        0.0869
@<TRIPOS>BOND
     1     1     2    2
     2     2     3   ar
     3     3     4   ar
     4     4     5   ar
     5     5     6   ar
     6     6     7   ar
     7     2     7   ar
     8     5     8   ar
     9     8     9    2
    10     8    10   ar
    11    10    11   ar
    12    11    12   ar
    13     4    12   ar
    14     3    13    1
    15     7    14    1
    16    10    15    1
    17    12    16    1
