@<TRIPOS>MOLECULE
O=c1nc[nH]c2cccn12
 15 16 0 0 0
SMALL
GASTEIGER
Energy = 0

@<TRIPOS>ATOM
      1 O           0.4600   -1.4471    0.0000 O.2     1  LIG1       -0.2440
      2 C           0.4600   -0.6221    0.0000 C.ar    1  LIG1        0.3553
      3 N           1.1745   -0.2096    0.0000 N.ar    1  LIG1       -0.1831
      4 C           1.1745    0.6154    0.0000 C.ar    1  LIG1        0.1002
      5 N           0.4600    1.0279    0.0000 N.ar    1  LIG1       -0.3318
      6 C          -0.2545    0.6154    0.0000 C.ar    1  LIG1        0.1203
      7 C          -1.0391    0.8704    0.0000 C.ar    1  LIG1       -0.0192
      8 C          -1.5240    0.2029    0.0000 C.ar    1  LIG1       -0.0416
      9 C          -1.0391   -0.4645    0.0000 C.ar    1  LIG1        0.0161
     10 N          -0.2545   -0.2096    0.0000 N.ar    1  LIG1       -0.2534
     11 H           2.1284    1.1662    0.0000 H       1  LIG1        0.1029
     12 H           0.4600    2.1104    0.0000 H       1  LIG1        0.1681
     13 H          -1.3795    1.9180    0.0000 H       1  LIG1        0.0654
     14 H          -2.6255    0.2029    0.0000 H       1  LIG1        0.0633
     15 H          -1.3795   -1.5121    0.0000 H       1  LIG1        0.0815
@<TRIPOS>BOND
     1     1     2    2
     2     2     3   ar
     3     3     4   ar
     4     4     5   ar
     5     5     6   ar
     6     6     7   ar
     7     7     8   ar
     8     8     9   ar
     9     9    10   ar
    10     2    10   ar
    11     6    10   ar
    12     4    11    1
    13     5    12    1
    14     7    13    1
    15     8    14    1
    16     9    15    1
