@<TRIPOS>MOLECULE
c1cn2ncnc2s1
 11 12 0 0 0
SMALL
GASTEIGER
Energy = 0

@<TRIPOS>ATOM
      1 S           0.6814   -0.5646    0.0000 S.2     1  LIG1       -0.0563
      2 C           1.1663    0.1029    0.0000 C.ar    1  LIG1       -0.0027
      3 C           0.6814    0.7703    0.0000 C.ar    1  LIG1        0.0386
      4 N          -0.1032    0.5154    0.0000 N.ar    1  LIG1       -0.2139
      5 N          -0.8878    0.7703    0.0000 N.ar    1  LIG1       -0.1531
      6 C          -1.3727    0.1029    0.0000 C.ar    1  LIG1        0.1395
      7 N          -0.8878   -0.5646    0.0000 N.ar    1  LIG1       -0.2084
      8 C          -0.1032   -0.3096    0.0000 C.ar    1  LIG1        0.1951
      9 H           2.2678    0.1029    0.0000 H       1  LIG1        0.0710
     10 H           1.0218    1.8179    0.0000 H       1  LIG1        0.0836
     11 H          -2.4742    0.1029    0.0000 H       1  LIG1        0.1066
@<TRIPOS>BOND
     1     1     2   ar
     2     2     3   ar
     3     3     4   ar
     4     4     5   ar
     5     5     6   ar
     6     6     7   ar
     7     7     8   ar
     8     1     8   ar
     9     4     8   ar
    10     2     9    1
    11     3    10    1
    12     6    11    1
