@<TRIPOS>MOLECULE
O=c1cc2c(=O)nc[nH]c2c[nH]1
 17 18 0 0 0
SMALL
GASTEIGER
Energy = 0

@<TRIPOS>ATOM
      1 O           2.0078   -0.5849    0.0000 O.2     1  LIG1       -0.2679
      2 C           1.2934   -0.1724    0.0000 C.ar    1  LIG1        0.2496
      3 N           1.2934    0.6526    0.0000 N.ar    1  LIG1       -0.3271
      4 C           0.5789    1.0651    0.0000 C.ar    1  LIG1        0.0290
      5 C          -0.1356    0.6526    0.0000 C.ar    1  LIG1        0.0692
      6 N          -0.8501    1.0651    0.0000 N.ar    1  LIG1       -0.3442
      7 C          -1.5645    0.6526    0.0000 C.ar    1  LIG1        0.0977
      8 N          -1.5645   -0.1724    0.0000 N.ar    1  LIG1       -0.1990
      9 C          -0.8501   -0.5849    0.0000 C.ar    1  LIG1        0.2809
     10 O          -0.8501   -1.4099    0.0000 O.2     1  LIG1       -0.2651
     11 C          -0.1356   -0.1724    0.0000 C.ar    1  LIG1        0.0710
     12 C           0.5789   -0.5849    0.0000 C.ar    1  LIG1        0.0171
     13 H           2.2309    1.1939    0.0000 H       1  LIG1        0.1684
     14 H           0.5789    2.1666    0.0000 H       1  LIG1        0.0829
     15 H          -0.8501    2.1476    0.0000 H       1  LIG1        0.1668
     16 H          -2.5184    1.2033    0.0000 H       1  LIG1        0.1028
     17 H           0.5789   -1.6864    0.0000 H       1  LIG1        0.0680
@<TRIPOS>BOND
     1     1     2    2
     2     2     3   ar
     3     3     4   ar
     4     4     5   ar
     5     5     6   ar
     6     6     7   ar
     7     7     8   ar
     8     8     9   ar
     9     9    10    2
    10     9    11   ar
    11     5    11   ar
    12    11    12   ar
    13     2    12   ar
    14     3    13    1
    15     4    14    1
    16     6    15    1
    17     7    16    1
    18    12    17    1
