@<TRIPOS>MOLECULE
Cn1c(=O)[nH]c2ccccc12
 19 20 0 0 0
SMALL
GASTEIGER
Energy = 0

@<TRIPOS>ATOM
      1 C           0.8130   -1.3276    0.0000 C.3     1  LIG1        0.0167
      2 N           0.5581   -0.5430    0.0000 N.ar    1  LIG1       -0.2952
      3 C           1.0430    0.1245    0.0000 C.ar    1  LIG1        0.3273
      4 O           1.8680    0.1245    0.0000 O.2     1  LIG1       -0.2465
      5 N           0.5581    0.7919    0.0000 N.ar    1  LIG1       -0.3060
      6 C          -0.2265    0.5370    0.0000 C.ar    1  LIG1        0.0670
      7 C          -0.9410    0.9495    0.0000 C.ar    1  LIG1       -0.0362
      8 C          -1.6555    0.5370    0.0000 C.ar    1  LIG1       -0.0597
      9 C          -1.6555   -0.2880    0.0000 C.ar    1  LIG1       -0.0597
     10 C          -0.9410   -0.7005    0.0000 C.ar    1  LIG1       -0.0360
     11 C          -0.2265   -0.2880    0.0000 C.ar    1  LIG1        0.0693
     12 H           1.9526   -1.3575    0.0000 H       1  LIG1        0.0457
     13 H           0.4038   -1.8755   -0.9121 H       1  LIG1        0.0457
     14 H           0.4245   -1.8478    0.9370 H       1  LIG1        0.0457
     15 H           0.8926    1.8214    0.0000 H       1  LIG1        0.1704
     16 H          -0.9410    2.0510    0.0000 H       1  LIG1        0.0639
     17 H          -2.6094    1.0878    0.0000 H       1  LIG1        0.0618
     18 H          -2.6094   -0.8388    0.0000 H       1  LIG1        0.0618
     19 H          -0.9410   -1.8020    0.0000 H       1  LIG1        0.0639
@<TRIPOS>BOND
     1     1     2    1
     2     2     3   ar
     3     3     4    2
     4     3     5   ar
     5     5     6   ar
     6     6     7   ar
     7     7     8   ar
     8     8     9   ar
     9     9    10   ar
    10    10    11   ar
    11     2    11   ar
    12     6    11   ar
    13     1    12    1
    14     1    13    1
    15     1    14    1
    16     5    15    1
    17     7    16    1
    18     8    17    1
    19     9    18    1
    20    10    19    1
