@<TRIPOS>MOLECULE
c1cc2cnnnc2nn1
 13 14 0 0 0
SMALL
GASTEIGER
Energy = 0

@<TRIPOS>ATOM
      1 C           1.4509    0.4441    0.0000 C.ar    1  LIG1        0.0507
      2 C           0.7364    0.8566    0.0000 C.ar    1  LIG1       -0.0296
      3 C           0.0219    0.4441    0.0000 C.ar    1  LIG1        0.0440
      4 C          -0.6925    0.8566    0.0000 C.ar    1  LIG1        0.0624
      5 N          -1.4070    0.4441    0.0000 N.ar    1  LIG1       -0.1370
      6 N          -1.4070   -0.3809    0.0000 N.ar    1  LIG1       -0.0412
      7 N          -0.6925   -0.7934    0.0000 N.ar    1  LIG1       -0.1074
      8 C           0.0219   -0.3809    0.0000 C.ar    1  LIG1        0.2065
      9 N           0.7364   -0.7934    0.0000 N.ar    1  LIG1       -0.1272
     10 N           1.4509   -0.3809    0.0000 N.ar    1  LIG1       -0.1556
     11 H           2.4048    0.9949    0.0000 H       1  LIG1        0.0848
     12 H           0.7364    1.9581    0.0000 H       1  LIG1        0.0641
     13 H          -0.6925    1.9581    0.0000 H       1  LIG1        0.0856
@<TRIPOS>BOND
     1     1     2   ar
     2     2     3   ar
     3     3     4   ar
     4     4     5   ar
     5     5     6   ar
     6     6     7   ar
     7     7     8   ar
     8     3     8   ar
     9     8     9   ar
    10     9    10   ar
    11     1    10   ar
    12     1    11    1
    13     2    12    1
    14     4    13    1
