@<TRIPOS>MOLECULE
Cn1ccn2cnc(=O)cc12
 18 19 0 0 0
SMALL
GASTEIGER
Energy = 0

@<TRIPOS>ATOM
      1 C           1.3245   -1.2386    0.0000 C.3     1  LIG1        0.0132
      2 N           1.0695   -0.4540    0.0000 N.ar    1  LIG1       -0.3349
      3 C           1.5545    0.2134    0.0000 C.ar    1  LIG1        0.0226
      4 C           1.0695    0.8809    0.0000 C.ar    1  LIG1        0.0287
      5 N           0.2849    0.6259    0.0000 N.ar    1  LIG1       -0.2915
      6 C          -0.4296    1.0384    0.0000 C.ar    1  LIG1        0.1054
      7 N          -1.1440    0.6259    0.0000 N.ar    1  LIG1       -0.1989
      8 C          -1.1440   -0.1991    0.0000 C.ar    1  LIG1        0.2750
      9 O          -1.8585   -0.6116    0.0000 O.2     1  LIG1       -0.2657
     10 C          -0.4296   -0.6116    0.0000 C.ar    1  LIG1        0.0458
     11 C           0.2849   -0.1991    0.0000 C.ar    1  LIG1        0.1240
     12 H           2.4641   -1.2684    0.0000 H       1  LIG1        0.0456
     13 H           0.9154   -1.7866   -0.9121 H       1  LIG1        0.0456
     14 H           0.9360   -1.7589    0.9370 H       1  LIG1        0.0456
     15 H           2.6560    0.2134    0.0000 H       1  LIG1        0.0824
     16 H           1.4098    1.9285    0.0000 H       1  LIG1        0.0828
     17 H          -0.4296    2.1399    0.0000 H       1  LIG1        0.1034
     18 H          -0.4296   -1.7131    0.0000 H       1  LIG1        0.0709
@<TRIPOS>BOND
     1     1     2    1
     2     2     3   ar
     3     3     4   ar
     4     4     5   ar
     5     5     6   ar
     6     6     7   ar
     7     7     8   ar
     8     8     9    2
     9     8    10   ar
    10    10    11   ar
    11     2    11   ar
    12     5    11   ar
    13     1    12    1
    14     1    13    1
    15     1    14    1
    16     3    15    1
    17     4    16    1
    18     6    17    1
    19    10    18    1
