@<TRIPOS>MOLECULE
O=c1nc2ncncc2c[nH]1
 15 16 0 0 0
SMALL
GASTEIGER
Energy = 0

@<TRIPOS>ATOM
      1 O           1.9054   -0.7220    0.0000 O.2     1  LIG1       -0.2447
      2 C           1.1909   -0.3095    0.0000 C.ar    1  LIG1        0.3478
      3 N           1.1909    0.5155    0.0000 N.ar    1  LIG1       -0.3122
      4 C           0.4765    0.9280    0.0000 C.ar    1  LIG1        0.0186
      5 C          -0.2380    0.5155    0.0000 C.ar    1  LIG1        0.0534
      6 C          -0.9525    0.9280    0.0000 C.ar    1  LIG1        0.0414
      7 N          -1.6669    0.5155    0.0000 N.ar    1  LIG1       -0.2429
      8 C          -1.6669   -0.3095    0.0000 C.ar    1  LIG1        0.1183
      9 N          -0.9525   -0.7220    0.0000 N.ar    1  LIG1       -0.2158
     10 C          -0.2380   -0.3095    0.0000 C.ar    1  LIG1        0.1695
     11 N           0.4765   -0.7220    0.0000 N.ar    1  LIG1       -0.1733
     12 H           2.1284    1.0567    0.0000 H       1  LIG1        0.1699
     13 H           0.4765    2.0295    0.0000 H       1  LIG1        0.0816
     14 H          -0.9525    2.0295    0.0000 H       1  LIG1        0.0838
     15 H          -2.6208   -0.8602    0.0000 H       1  LIG1        0.1047
@<TRIPOS>BOND
     1     1     2    2
     2     2     3   ar
     3     3     4   ar
     4     4     5   ar
     5     5     6   ar
     6     6     7   ar
     7     7     8   ar
     8     8     9   ar
     9     9    10   ar
    10     5    10   ar
    11    10    11   ar
    12     2    11   ar
    13     3    12    1
    14     4    13    1
    15     6    14    1
    16     8    15    1
