@<TRIPOS>MOLECULE
O=c1nc[nH]c2ncncc12
 15 16 0 0 0
SMALL
GASTEIGER
Energy = 0

@<TRIPOS>ATOM
      1 O           0.6351   -1.4782    0.0000 O.2     1  LIG1       -0.2650
      2 C           0.6351   -0.6532    0.0000 C.ar    1  LIG1        0.2837
      3 N           1.3496   -0.2407    0.0000 N.ar    1  LIG1       -0.1989
      4 C           1.3496    0.5843    0.0000 C.ar    1  LIG1        0.0988
      5 N           0.6351    0.9968    0.0000 N.ar    1  LIG1       -0.3302
      6 C          -0.0793    0.5843    0.0000 C.ar    1  LIG1        0.1476
      7 N          -0.7938    0.9968    0.0000 N.ar    1  LIG1       -0.2177
      8 C          -1.5083    0.5843    0.0000 C.ar    1  LIG1        0.1182
      9 N          -1.5083   -0.2407    0.0000 N.ar    1  LIG1       -0.2428
     10 C          -0.7938   -0.6532    0.0000 C.ar    1  LIG1        0.0452
     11 C          -0.0793   -0.2407    0.0000 C.ar    1  LIG1        0.1015
     12 H           2.3035    1.1351    0.0000 H       1  LIG1        0.1028
     13 H           0.6351    2.0793    0.0000 H       1  LIG1        0.1682
     14 H          -2.4622    1.1351    0.0000 H       1  LIG1        0.1047
     15 H          -0.7938   -1.7547    0.0000 H       1  LIG1        0.0839
@<TRIPOS>BOND
     1     1     2    2
     2     2     3   ar
     3     3     4   ar
     4     4     5   ar
     5     5     6   ar
     6     6     7   ar
     7     7     8   ar
     8     8     9   ar
     9     9    10   ar
    10    10    11   ar
    11     2    11   ar
    12     6    11   ar
    13     4    12    1
    14     5    13    1
    15     8    14    1
    16    10    15    1
