@<TRIPOS>MOLECULE
O=c1cnc2ccncc2[nH]1
 16 17 0 0 0
SMALL
GASTEIGER
Energy = 0

@<TRIPOS>ATOM
      1 O           1.9021    0.7263    0.0000 O.2     1  LIG1       -0.2662
      2 C           1.1876    0.3138    0.0000 C.ar    1  LIG1        0.2674
      3 N           0.4731    0.7263    0.0000 N.ar    1  LIG1       -0.3184
      4 C          -0.2413    0.3138    0.0000 C.ar    1  LIG1        0.0859
      5 C          -0.9558    0.7263    0.0000 C.ar    1  LIG1        0.0530
      6 N          -1.6703    0.3138    0.0000 N.ar    1  LIG1       -0.2611
      7 C          -1.6703   -0.5112    0.0000 C.ar    1  LIG1        0.0297
      8 C          -0.9558   -0.9237    0.0000 C.ar    1  LIG1       -0.0162
      9 C          -0.2413   -0.5112    0.0000 C.ar    1  LIG1        0.0903
     10 N           0.4731   -0.9237    0.0000 N.ar    1  LIG1       -0.2480
     11 C           1.1876   -0.5112    0.0000 C.ar    1  LIG1        0.0925
     12 H           0.4731    1.8088    0.0000 H       1  LIG1        0.1690
     13 H          -0.9558    1.8278    0.0000 H       1  LIG1        0.0851
     14 H          -2.6242   -1.0620    0.0000 H       1  LIG1        0.0830
     15 H          -0.9558   -2.0252    0.0000 H       1  LIG1        0.0655
     16 H           2.1415   -1.0620    0.0000 H       1  LIG1        0.0885
@<TRIPOS>BOND
     1     1     2    2
     2     2     3   ar
     3     3     4   ar
     4     4     5   ar
     5     5     6   ar
     6     6     7   ar
     7     7     8   ar
     8     8     9   ar
     9     4     9   ar
    10     9    10   ar
    11    10    11   ar
    12     2    11   ar
    13     3    12    1
    14     5    13    1
    15     7    14    1
    16     8    15    1
    17    11    16    1
