@<TRIPOS>MOLECULE
O=c1[nH]c2cnncc2o1
 13 14 0 0 0
SMALL
GASTEIGER
Energy = 0

@<TRIPOS>ATOM
      1 O           1.9818    0.0099    0.0000 O.2     1  LIG1       -0.2229
      2 C           1.1568    0.0099    0.0000 C.ar    1  LIG1        0.4187
      3 N           0.6719    0.6774    0.0000 N.ar    1  LIG1       -0.2867
      4 C          -0.1127    0.4224    0.0000 C.ar    1  LIG1        0.1089
      5 C          -0.8272    0.8349    0.0000 C.ar    1  LIG1        0.0770
      6 N          -1.5416    0.4224    0.0000 N.ar    1  LIG1       -0.1554
      7 N          -1.5416   -0.4026    0.0000 N.ar    1  LIG1       -0.1539
      8 C          -0.8272   -0.8151    0.0000 C.ar    1  LIG1        0.0944
      9 C          -0.1127   -0.4026    0.0000 C.ar    1  LIG1        0.1780
     10 O           0.6719   -0.6575    0.0000 O.2     1  LIG1       -0.4059
     11 H           1.0064    1.7069    0.0000 H       1  LIG1        0.1722
     12 H          -0.8272    1.9364    0.0000 H       1  LIG1        0.0870
     13 H          -0.8272   -1.9166    0.0000 H       1  LIG1        0.0886
@<TRIPOS>BOND
     1     1     2    2
     2     2     3   ar
     3     3     4   ar
     4     4     5   ar
     5     5     6   ar
     6     6     7   ar
     7     7     8   ar
     8     8     9   ar
     9     4     9   ar
    10     9    10   ar
    11     2    10   ar
    12     3    11    1
    13     5    12    1
    14     8    13    1
