@<TRIPOS>MOLECULE
Cn1ccnc2c(=O)nccc12
 19 20 0 0 0
SMALL
GASTEIGER
Energy = 0

@<TRIPOS>ATOM
      1 C           0.7330   -1.6980    0.0000 C.3     1  LIG1        0.0120
      2 N           0.7330   -0.8730    0.0000 N.ar    1  LIG1       -0.3469
      3 C           1.4474   -0.4605    0.0000 C.ar    1  LIG1        0.0229
      4 C           1.4474    0.3645    0.0000 C.ar    1  LIG1        0.0446
      5 N           0.7330    0.7770    0.0000 N.ar    1  LIG1       -0.2466
      6 C           0.0185    0.3645    0.0000 C.ar    1  LIG1        0.1533
      7 C          -0.6960    0.7770    0.0000 C.ar    1  LIG1        0.2977
      8 O          -0.6960    1.6020    0.0000 O.2     1  LIG1       -0.2635
      9 N          -1.4104    0.3645    0.0000 N.ar    1  LIG1       -0.2156
     10 C          -1.4104   -0.4605    0.0000 C.ar    1  LIG1        0.0336
     11 C          -0.6960   -0.8730    0.0000 C.ar    1  LIG1       -0.0177
     12 C           0.0185   -0.4605    0.0000 C.ar    1  LIG1        0.0741
     13 H           1.8076   -2.0785    0.0000 H       1  LIG1        0.0456
     14 H           0.1745   -2.0927   -0.9121 H       1  LIG1        0.0456
     15 H           0.2028   -2.0727    0.9370 H       1  LIG1        0.0456
     16 H           2.4013   -1.0112    0.0000 H       1  LIG1        0.0824
     17 H           2.4013    0.9152    0.0000 H       1  LIG1        0.0844
     18 H          -2.3643   -1.0112    0.0000 H       1  LIG1        0.0831
     19 H          -0.6960   -1.9745    0.0000 H       1  LIG1        0.0654
@<TRIPOS>BOND
     1     1     2    1
     2     2     3   ar
     3     3     4   ar
     4     4     5   ar
     5     5     6   ar
     6     6     7   ar
     7     7     8    2
     8     7     9   ar
     9     9    10   ar
    10    10    11   ar
    11    11    12   ar
    12     2    12   ar
    13     6    12   ar
    14     1    13    1
    15     1    14    1
    16     1    15    1
    17     3    16    1
    18     4    17    1
    19    10    18    1
    20    11    19    1
