@<TRIPOS>MOLECULE
O=c1[nH]ccc2[nH]cnc12
 15 16 0 0 0
SMALL
GASTEIGER
Energy = 0

@<TRIPOS>ATOM
      1 O          -0.4951   -1.4407    0.0000 O.2     1  LIG1       -0.2655
      2 C          -0.4951   -0.6157    0.0000 C.ar    1  LIG1        0.2763
      3 N          -1.2095   -0.2032    0.0000 N.ar    1  LIG1       -0.3272
      4 C          -1.2095    0.6218    0.0000 C.ar    1  LIG1        0.0070
      5 C          -0.4951    1.0343    0.0000 C.ar    1  LIG1       -0.0200
      6 C           0.2194    0.6218    0.0000 C.ar    1  LIG1        0.0727
      7 C           0.2194   -0.2032    0.0000 C.ar    1  LIG1        0.1528
      8 N           1.0040   -0.4582    0.0000 N.ar    1  LIG1       -0.2305
      9 C           1.4890    0.2093    0.0000 C.ar    1  LIG1        0.0946
     10 N           1.0040    0.8767    0.0000 N.ar    1  LIG1       -0.3442
     11 H          -2.1470   -0.7444    0.0000 H       1  LIG1        0.1684
     12 H          -2.1634    1.1725    0.0000 H       1  LIG1        0.0808
     13 H          -0.4951    2.1358    0.0000 H       1  LIG1        0.0653
     14 H           2.5905    0.2093    0.0000 H       1  LIG1        0.1027
     15 H           1.3385    1.9062    0.0000 H       1  LIG1        0.1668
@<TRIPOS>BOND
     1     1     2    2
     2     2     3   ar
     3     3     4   ar
     4     4     5   ar
     5     5     6   ar
     6     6     7   ar
     7     2     7   ar
     8     7     8   ar
     9     8     9   ar
    10     9    10   ar
    11     6    10   ar
    12     3    11    1
    13     4    12    1
    14     5    13    1
    15     9    14    1
    16    10    15    1
