@<TRIPOS>MOLECULE
O=c1ncc2n[nH]cc2[nH]1
 14 15 0 0 0
SMALL
GASTEIGER
Energy = 0

@<TRIPOS>ATOM
      1 O           1.7507    0.7289    0.0000 O.2     1  LIG1       -0.2447
      2 C           1.0363    0.3164    0.0000 C.ar    1  LIG1        0.3464
      3 N           0.3218    0.7289    0.0000 N.ar    1  LIG1       -0.3032
      4 C          -0.3927    0.3164    0.0000 C.ar    1  LIG1        0.0896
      5 C          -1.1773    0.5714    0.0000 C.ar    1  LIG1        0.0464
      6 N          -1.6622   -0.0961    0.0000 N.ar    1  LIG1       -0.2821
      7 N          -1.1773   -0.7635    0.0000 N.ar    1  LIG1       -0.1708
      8 C          -0.3927   -0.5086    0.0000 C.ar    1  LIG1        0.1269
      9 C           0.3218   -0.9211    0.0000 C.ar    1  LIG1        0.0621
     10 N           1.0363   -0.5086    0.0000 N.ar    1  LIG1       -0.1993
     11 H           0.3218    1.8114    0.0000 H       1  LIG1        0.1705
     12 H          -1.5177    1.6190    0.0000 H       1  LIG1        0.0845
     13 H          -2.7447   -0.0961    0.0000 H       1  LIG1        0.1883
     14 H           0.3218   -2.0226    0.0000 H       1  LIG1        0.0854
@<TRIPOS>BOND
     1     1     2    2
     2     2     3   ar
     3     3     4   ar
     4     4     5   ar
     5     5     6   ar
     6     6     7   ar
     7     7     8   ar
     8     4     8   ar
     9     8     9   ar
    10     9    10   ar
    11     2    10   ar
    12     3    11    1
    13     5    12    1
    14     6    13    1
    15     9    14    1
