@<TRIPOS>MOLECULE
c1n[nH]c2nnncc12
 12 13 0 0 0
SMALL
GASTEIGER
Energy = 0

@<TRIPOS>ATOM
      1 N           0.9576   -0.6422    0.0000 N.ar    1  LIG1       -0.2587
      2 N           1.4425    0.0252    0.0000 N.ar    1  LIG1       -0.1798
      3 C           0.9576    0.6927    0.0000 C.ar    1  LIG1        0.0600
      4 C           0.1730    0.4377    0.0000 C.ar    1  LIG1        0.0600
      5 C          -0.5415    0.8502    0.0000 C.ar    1  LIG1        0.0638
      6 N          -1.2560    0.4377    0.0000 N.ar    1  LIG1       -0.1370
      7 N          -1.2560   -0.3873    0.0000 N.ar    1  LIG1       -0.0413
      8 N          -0.5415   -0.7998    0.0000 N.ar    1  LIG1       -0.1097
      9 C           0.1730   -0.3873    0.0000 C.ar    1  LIG1        0.1810
     10 H           1.2921   -1.6717    0.0000 H       1  LIG1        0.1906
     11 H           1.2980    1.7403    0.0000 H       1  LIG1        0.0855
     12 H          -0.5415    1.9517    0.0000 H       1  LIG1        0.0856
@<TRIPOS>BOND
     1     1     2   ar
     2     2     3   ar
     3     3     4   ar
     4     4     5   ar
     5     5     6   ar
     6     6     7   ar
     7     7     8   ar
     8     8     9   ar
     9     1     9   ar
    10     4     9   ar
    11     1    10    1
    12     3    11    1
    13     5    12    1
