@<TRIPOS>MOLECULE
c1cc2[nH]nnc2[nH]1
 12 13 0 0 0
SMALL
GASTEIGER
Energy = 0

@<TRIPOS>ATOM
      1 N           0.8240   -0.6546    0.0000 N.ar    1  LIG1       -0.3432
      2 C           1.3089    0.0128    0.0000 C.ar    1  LIG1        0.0057
      3 C           0.8240    0.6802    0.0000 C.ar    1  LIG1       -0.0172
      4 C           0.0394    0.4253    0.0000 C.ar    1  LIG1        0.1040
      5 C           0.0394   -0.3997    0.0000 C.ar    1  LIG1        0.1798
      6 N          -0.7452   -0.6546    0.0000 N.ar    1  LIG1       -0.1114
      7 N          -1.2301    0.0128    0.0000 N.ar    1  LIG1       -0.0658
      8 N          -0.7452    0.6802    0.0000 N.ar    1  LIG1       -0.2556
      9 H           1.1585   -1.6841    0.0000 H       1  LIG1        0.1669
     10 H           2.4104    0.0128    0.0000 H       1  LIG1        0.0808
     11 H           1.1644    1.7278    0.0000 H       1  LIG1        0.0654
     12 H          -1.0797    1.7097    0.0000 H       1  LIG1        0.1907
@<TRIPOS>BOND
     1     1     2   ar
     2     2     3   ar
     3     3     4   ar
     4     4     5   ar
     5     1     5   ar
     6     5     6   ar
     7     6     7   ar
     8     7     8   ar
     9     4     8   ar
    10     1     9    1
    11     2    10    1
    12     3    11    1
    13     8    12    1
