@<TRIPOS>MOLECULE
O=c1[nH][nH]c2[nH]c(=O)ccc12
 16 17 0 0 0
SMALL
GASTEIGER
Energy = 0

@<TRIPOS>ATOM
      1 O          -1.9218    0.8733    0.0000 O.2     1  LIG1       -0.2679
      2 C          -1.2073    0.4608    0.0000 C.ar    1  LIG1        0.2502
      3 N          -0.4928    0.8733    0.0000 N.ar    1  LIG1       -0.3073
      4 C           0.2216    0.4608    0.0000 C.ar    1  LIG1        0.1386
      5 C           0.2216   -0.3642    0.0000 C.ar    1  LIG1        0.0824
      6 C          -0.4928   -0.7767    0.0000 C.ar    1  LIG1       -0.0407
      7 C          -1.2073   -0.3642    0.0000 C.ar    1  LIG1        0.0036
      8 C           1.0063   -0.6192    0.0000 C.ar    1  LIG1        0.2737
      9 O           1.2612   -1.4038    0.0000 O.2     1  LIG1       -0.2657
     10 N           1.4912    0.0483    0.0000 N.ar    1  LIG1       -0.2640
     11 N           1.0063    0.7157    0.0000 N.ar    1  LIG1       -0.2816
     12 H          -0.4928    1.9558    0.0000 H       1  LIG1        0.1703
     13 H          -0.4928   -1.8782    0.0000 H       1  LIG1        0.0628
     14 H          -2.1612   -0.9150    0.0000 H       1  LIG1        0.0672
     15 H           2.5737    0.0483    0.0000 H       1  LIG1        0.1900
     16 H           1.3408    1.7452    0.0000 H       1  LIG1        0.1884
@<TRIPOS>BOND
     1     1     2    2
     2     2     3   ar
     3     3     4   ar
     4     4     5   ar
     5     5     6   ar
     6     6     7   ar
     7     2     7   ar
     8     5     8   ar
     9     8     9    2
    10     8    10   ar
    11    10    11   ar
    12     4    11   ar
    13     3    12    1
    14     6    13    1
    15     7    14    1
    16    10    15    1
    17    11    16    1
