@<TRIPOS>MOLECULE
Cn1ccc(=O)c2cnccc12
 20 21 0 0 0
SMALL
GASTEIGER
Energy = 0

@<TRIPOS>ATOM
      1 C           0.5923   -1.6879    0.0000 C.3     1  LIG1        0.0119
      2 N           0.5923   -0.8629    0.0000 N.ar    1  LIG1       -0.3494
      3 C           1.3068   -0.4504    0.0000 C.ar    1  LIG1        0.0084
      4 C           1.3068    0.3746    0.0000 C.ar    1  LIG1        0.0019
      5 C           0.5923    0.7871    0.0000 C.ar    1  LIG1        0.1909
      6 O           0.5923    1.6121    0.0000 O.2     1  LIG1       -0.2871
      7 C          -0.1222    0.3746    0.0000 C.ar    1  LIG1        0.0632
      8 C          -0.8367    0.7871    0.0000 C.ar    1  LIG1        0.0403
      9 N          -1.5511    0.3746    0.0000 N.ar    1  LIG1       -0.2624
     10 C          -1.5511   -0.4504    0.0000 C.ar    1  LIG1        0.0295
     11 C          -0.8367   -0.8629    0.0000 C.ar    1  LIG1       -0.0194
     12 C          -0.1222   -0.4504    0.0000 C.ar    1  LIG1        0.0554
     13 H           1.6669   -2.0684    0.0000 H       1  LIG1        0.0456
     14 H           0.0338   -2.0826   -0.9121 H       1  LIG1        0.0456
     15 H           0.0621   -2.0626    0.9370 H       1  LIG1        0.0456
     16 H           2.2607   -1.0012    0.0000 H       1  LIG1        0.0810
     17 H           2.2607    0.9254    0.0000 H       1  LIG1        0.0670
     18 H          -0.8367    1.8886    0.0000 H       1  LIG1        0.0837
     19 H          -2.5050   -1.0011    0.0000 H       1  LIG1        0.0830
     20 H          -0.8367   -1.9644    0.0000 H       1  LIG1        0.0653
@<TRIPOS>BOND
     1     1     2    1
     2     2     3   ar
     3     3     4   ar
     4     4     5   ar
     5     5     6    2
     6     5     7   ar
     7     7     8   ar
     8     8     9   ar
     9     9    10   ar
    10    10    11   ar
    11    11    12   ar
    12     2    12   ar
    13     7    12   ar
    14     1    13    1
    15     1    14    1
    16     1    15    1
    17     3    16    1
    18     4    17    1
    19     8    18    1
    20    10    19    1
    21    11    20    1
