@<TRIPOS>MOLECULE
Cn1[nH]c(=O)c2[nH]ccc2c1=O
 19 20 0 0 0
SMALL
GASTEIGER
Energy = 0

@<TRIPOS>ATOM
      1 C          -1.6998   -0.7708    0.0000 C.3     1  LIG1        0.0320
      2 N          -0.9853   -0.3583    0.0000 N.ar    1  LIG1       -0.2520
      3 N          -0.9853    0.4667    0.0000 N.ar    1  LIG1       -0.2593
      4 C          -0.2708    0.8792    0.0000 C.ar    1  LIG1        0.2874
      5 O          -0.2708    1.7042    0.0000 O.2     1  LIG1       -0.2642
      6 C           0.4436    0.4667    0.0000 C.ar    1  LIG1        0.1182
      7 C           0.4436   -0.3583    0.0000 C.ar    1  LIG1        0.0708
      8 C           1.2283   -0.6132    0.0000 C.ar    1  LIG1       -0.0312
      9 C           1.7132    0.0542    0.0000 C.ar    1  LIG1        0.0031
     10 N           1.2283    0.7217    0.0000 N.ar    1  LIG1       -0.3563
     11 C          -0.2708   -0.7708    0.0000 C.ar    1  LIG1        0.2748
     12 O          -0.2708   -1.5958    0.0000 O.2     1  LIG1       -0.2656
     13 H          -2.5666   -0.0304    0.0000 H       1  LIG1        0.0473
     14 H          -1.7624   -1.4518    0.9121 H       1  LIG1        0.0473
     15 H          -1.7592   -1.4174   -0.9370 H       1  LIG1        0.0473
     16 H          -1.9228    1.0080    0.0000 H       1  LIG1        0.1903
     17 H           1.5687   -1.6608    0.0000 H       1  LIG1        0.0640
     18 H           2.8147    0.0542    0.0000 H       1  LIG1        0.0807
     19 H           1.5628    1.7512    0.0000 H       1  LIG1        0.1655
@<TRIPOS>BOND
     1     1     2    1
     2     2     3   ar
     3     3     4   ar
     4     4     5    2
     5     4     6   ar
     6     6     7   ar
     7     7     8   ar
     8     8     9   ar
     9     9    10   ar
    10     6    10   ar
    11     7    11   ar
    12     2    11   ar
    13    11    12    2
    14     1    13    1
    15     1    14    1
    16     1    15    1
    17     3    16    1
    18     8    17    1
    19     9    18    1
    20    10    19    1
