@<TRIPOS>MOLECULE
O=c1ncc2cncnc2[nH]1
 15 16 0 0 0
SMALL
GASTEIGER
Energy = 0

@<TRIPOS>ATOM
      1 O           1.9054    0.7220    0.0000 O.2     1  LIG1       -0.2447
      2 C           1.1909    0.3095    0.0000 C.ar    1  LIG1        0.3474
      3 N           0.4765    0.7220    0.0000 N.ar    1  LIG1       -0.2905
      4 C          -0.2380    0.3095    0.0000 C.ar    1  LIG1        0.1466
      5 N          -0.9525    0.7220    0.0000 N.ar    1  LIG1       -0.2178
      6 C          -1.6669    0.3095    0.0000 C.ar    1  LIG1        0.1182
      7 N          -1.6669   -0.5155    0.0000 N.ar    1  LIG1       -0.2429
      8 C          -0.9525   -0.9280    0.0000 C.ar    1  LIG1        0.0414
      9 C          -0.2380   -0.5155    0.0000 C.ar    1  LIG1        0.0537
     10 C           0.4765   -0.9280    0.0000 C.ar    1  LIG1        0.0451
     11 N           1.1909   -0.5155    0.0000 N.ar    1  LIG1       -0.2008
     12 H           0.4765    1.8045    0.0000 H       1  LIG1        0.1719
     13 H          -2.6208    0.8602    0.0000 H       1  LIG1        0.1047
     14 H          -0.9525   -2.0295    0.0000 H       1  LIG1        0.0838
     15 H           0.4765   -2.0295    0.0000 H       1  LIG1        0.0839
@<TRIPOS>BOND
     1     1     2    2
     2     2     3   ar
     3     3     4   ar
     4     4     5   ar
     5     5     6   ar
     6     6     7   ar
     7     7     8   ar
     8     8     9   ar
     9     4     9   ar
    10     9    10   ar
    11    10    11   ar
    12     2    11   ar
    13     3    12    1
    14     6    13    1
    15     8    14    1
    16    10    15    1
