@<TRIPOS>MOLECULE
Cn1ccc2nncc2n1
 16 17 0 0 0
SMALL
GASTEIGER
Energy = 0

@<TRIPOS>ATOM
      1 C           1.8053   -0.7388    0.0000 C.3     1  LIG1        0.0302
      2 N           1.0908   -0.3263    0.0000 N.ar    1  LIG1       -0.2738
      3 C           1.0908    0.4987    0.0000 C.ar    1  LIG1        0.0258
      4 C           0.3763    0.9112    0.0000 C.ar    1  LIG1       -0.0146
      5 C          -0.3381    0.4987    0.0000 C.ar    1  LIG1        0.1161
      6 N          -1.1228    0.7537    0.0000 N.ar    1  LIG1       -0.1475
      7 N          -1.6077    0.0862    0.0000 N.ar    1  LIG1       -0.1548
      8 C          -1.1228   -0.5812    0.0000 C.ar    1  LIG1        0.0791
      9 C          -0.3381   -0.3263    0.0000 C.ar    1  LIG1        0.1309
     10 N           0.3763   -0.7388    0.0000 N.ar    1  LIG1       -0.1683
     11 H           2.6721    0.0016    0.0000 H       1  LIG1        0.0473
     12 H           1.8679   -1.4198   -0.9121 H       1  LIG1        0.0473
     13 H           1.8647   -1.3854    0.9370 H       1  LIG1        0.0473
     14 H           2.0447    1.0495    0.0000 H       1  LIG1        0.0826
     15 H           0.3763    2.0127    0.0000 H       1  LIG1        0.0655
     16 H          -1.4632   -1.6288    0.0000 H       1  LIG1        0.0871
@<TRIPOS>BOND
     1     1     2    1
     2     2     3   ar
     3     3     4   ar
     4     4     5   ar
     5     5     6   ar
     6     6     7   ar
     7     7     8   ar
     8     8     9   ar
     9     5     9   ar
    10     9    10   ar
    11     2    10   ar
    12     1    11    1
    13     1    12    1
    14     1    13    1
    15     3    14    1
    16     4    15    1
    17     8    16    1
