@<TRIPOS>MOLECULE
O=c1ccn2[nH]cnc2c1
 15 16 0 0 0
SMALL
GASTEIGER
Energy = 0

@<TRIPOS>ATOM
      1 O           1.7702   -0.7299    0.0000 O.2     1  LIG1       -0.2877
      2 C           1.0557   -0.3174    0.0000 C.ar    1  LIG1        0.1839
      3 C           1.0557    0.5076    0.0000 C.ar    1  LIG1        0.0033
      4 C           0.3412    0.9201    0.0000 C.ar    1  LIG1        0.0330
      5 N          -0.3732    0.5076    0.0000 N.ar    1  LIG1       -0.2430
      6 N          -1.1579    0.7626    0.0000 N.ar    1  LIG1       -0.2813
      7 C          -1.6428    0.0951    0.0000 C.ar    1  LIG1        0.1106
      8 N          -1.1579   -0.5723    0.0000 N.ar    1  LIG1       -0.2172
      9 C          -0.3732   -0.3174    0.0000 C.ar    1  LIG1        0.1573
     10 C           0.3412   -0.7299    0.0000 C.ar    1  LIG1        0.0293
     11 H           2.0096    1.0584    0.0000 H       1  LIG1        0.0671
     12 H           0.3412    2.0216    0.0000 H       1  LIG1        0.0831
     13 H          -1.4924    1.7921    0.0000 H       1  LIG1        0.1884
     14 H          -2.7443    0.0951    0.0000 H       1  LIG1        0.1041
     15 H           0.3412   -1.8314    0.0000 H       1  LIG1        0.0693
@<TRIPOS>BOND
     1     1     2    2
     2     2     3   ar
     3     3     4   ar
     4     4     5   ar
     5     5     6   ar
     6     6     7   ar
     7     7     8   ar
     8     8     9   ar
     9     5     9   ar
    10     9    10   ar
    11     2    10   ar
    12     3    11    1
    13     4    12    1
    14     6    13    1
    15     7    14    1
    16    10    15    1
