@<TRIPOS>MOLECULE
O=c1nc2cc[nH]c(=O)n2[nH]1
 15 16 0 0 0
SMALL
GASTEIGER
Energy = 0

@<TRIPOS>ATOM
      1 O           2.0610   -0.1894    0.0000 O.2     1  LIG1       -0.2432
      2 C           1.2360   -0.1894    0.0000 C.ar    1  LIG1        0.3628
      3 N           0.7511    0.4780    0.0000 N.ar    1  LIG1       -0.2372
      4 N          -0.0336    0.2231    0.0000 N.ar    1  LIG1       -0.1823
      5 C          -0.7480    0.6356    0.0000 C.ar    1  LIG1        0.3472
      6 O          -0.7480    1.4606    0.0000 O.2     1  LIG1       -0.2447
      7 N          -1.4625    0.2231    0.0000 N.ar    1  LIG1       -0.3128
      8 C          -1.4625   -0.6019    0.0000 C.ar    1  LIG1        0.0099
      9 C          -0.7480   -1.0144    0.0000 C.ar    1  LIG1       -0.0011
     10 C          -0.0336   -0.6019    0.0000 C.ar    1  LIG1        0.1641
     11 N           0.7511   -0.8568    0.0000 N.ar    1  LIG1       -0.1727
     12 H           1.0856    1.5075    0.0000 H       1  LIG1        0.1923
     13 H          -2.4000    0.7644    0.0000 H       1  LIG1        0.1699
     14 H          -2.4164   -1.1527    0.0000 H       1  LIG1        0.0809
     15 H          -0.7480   -2.1159    0.0000 H       1  LIG1        0.0669
@<TRIPOS>BOND
     1     1     2    2
     2     2     3   ar
     3     3     4   ar
     4     4     5   ar
     5     5     6    2
     6     5     7   ar
     7     7     8   ar
     8     8     9   ar
     9     9    10   ar
    10     4    10   ar
    11    10    11   ar
    12     2    11   ar
    13     3    12    1
    14     7    13    1
    15     8    14    1
    16     9    15    1
