@<TRIPOS>MOLECULE
Cn1cnc(=O)c2ccccc12
 20 21 0 0 0
SMALL
GASTEIGER
Energy = 0

@<TRIPOS>ATOM
      1 C           0.5548   -1.6879    0.0000 C.3     1  LIG1        0.0132
      2 N           0.5548   -0.8629    0.0000 N.ar    1  LIG1       -0.3342
      3 C           1.2692   -0.4504    0.0000 C.ar    1  LIG1        0.1000
      4 N           1.2692    0.3746    0.0000 N.ar    1  LIG1       -0.1988
      5 C           0.5548    0.7871    0.0000 C.ar    1  LIG1        0.2807
      6 O           0.5548    1.6121    0.0000 O.2     1  LIG1       -0.2651
      7 C          -0.1597    0.3746    0.0000 C.ar    1  LIG1        0.0647
      8 C          -0.8742    0.7871    0.0000 C.ar    1  LIG1       -0.0474
      9 C          -1.5886    0.3746    0.0000 C.ar    1  LIG1       -0.0609
     10 C          -1.5886   -0.4504    0.0000 C.ar    1  LIG1       -0.0598
     11 C          -0.8742   -0.8629    0.0000 C.ar    1  LIG1       -0.0374
     12 C          -0.1597   -0.4504    0.0000 C.ar    1  LIG1        0.0551
     13 H           1.6294   -2.0684    0.0000 H       1  LIG1        0.0456
     14 H          -0.0037   -2.0826   -0.9121 H       1  LIG1        0.0456
     15 H           0.0246   -2.0626    0.9370 H       1  LIG1        0.0456
     16 H           2.2231   -1.0011    0.0000 H       1  LIG1        0.1030
     17 H          -0.8742    1.8886    0.0000 H       1  LIG1        0.0626
     18 H          -2.5425    0.9253    0.0000 H       1  LIG1        0.0618
     19 H          -2.5425   -1.0011    0.0000 H       1  LIG1        0.0618
     20 H          -0.8742   -1.9644    0.0000 H       1  LIG1        0.0638
@<TRIPOS>BOND
     1     1     2    1
     2     2     3   ar
     3     3     4   ar
     4     4     5   ar
     5     5     6    2
     6     5     7   ar
     7     7     8   ar
     8     8     9   ar
     9     9    10   ar
    10    10    11   ar
    11    11    12   ar
    12     2    12   ar
    13     7    12   ar
    14     1    13    1
    15     1    14    1
    16     1    15    1
    17     3    16    1
    18     8    17    1
    19     9    18    1
    20    10    19    1
    21    11    20    1
