@<TRIPOS>MOLECULE
c1cc2onnc2cn1
 12 13 0 0 0
SMALL
GASTEIGER
Energy = 0

@<TRIPOS>ATOM
      1 O           0.8948   -0.6631    0.0000 O.2     1  LIG1       -0.3357
      2 N           1.3798    0.0043    0.0000 N.ar    1  LIG1        0.0348
      3 N           0.8948    0.6717    0.0000 N.ar    1  LIG1       -0.1094
      4 C           0.1102    0.4168    0.0000 C.ar    1  LIG1        0.1519
      5 C           0.1102   -0.4082    0.0000 C.ar    1  LIG1        0.1903
      6 C          -0.6042   -0.8207    0.0000 C.ar    1  LIG1        0.0037
      7 C          -1.3187   -0.4082    0.0000 C.ar    1  LIG1        0.0313
      8 N          -1.3187    0.4168    0.0000 N.ar    1  LIG1       -0.2609
      9 C          -0.6042    0.8293    0.0000 C.ar    1  LIG1        0.0585
     10 H          -0.6042   -1.9222    0.0000 H       1  LIG1        0.0671
     11 H          -2.2726   -0.9590    0.0000 H       1  LIG1        0.0831
     12 H          -0.6042    1.9308    0.0000 H       1  LIG1        0.0853
@<TRIPOS>BOND
     1     1     2   ar
     2     2     3   ar
     3     3     4   ar
     4     4     5   ar
     5     1     5   ar
     6     5     6   ar
     7     6     7   ar
     8     7     8   ar
     9     8     9   ar
    10     4     9   ar
    11     6    10    1
    12     7    11    1
    13     9    12    1
