@<TRIPOS>MOLECULE
Cn1ccc2cncn2c1=O
 18 19 0 0 0
SMALL
GASTEIGER
Energy = 0

@<TRIPOS>ATOM
      1 C           1.7572   -0.5579    0.0000 C.3     1  LIG1        0.0161
      2 N           1.0427   -0.1454    0.0000 N.ar    1  LIG1       -0.3032
      3 C           1.0427    0.6796    0.0000 C.ar    1  LIG1        0.0110
      4 C           0.3282    1.0921    0.0000 C.ar    1  LIG1       -0.0199
      5 C          -0.3863    0.6796    0.0000 C.ar    1  LIG1        0.0717
      6 C          -1.1709    0.9345    0.0000 C.ar    1  LIG1        0.0533
      7 N          -1.6558    0.2671    0.0000 N.ar    1  LIG1       -0.2430
      8 C          -1.1709   -0.4003    0.0000 C.ar    1  LIG1        0.1046
      9 N          -0.3863   -0.1454    0.0000 N.ar    1  LIG1       -0.2513
     10 C           0.3282   -0.5579    0.0000 C.ar    1  LIG1        0.3346
     11 O           0.3282   -1.3829    0.0000 O.2     1  LIG1       -0.2459
     12 H           2.6240    0.1825    0.0000 H       1  LIG1        0.0457
     13 H           1.8198   -1.2389   -0.9121 H       1  LIG1        0.0457
     14 H           1.8166   -1.2045    0.9370 H       1  LIG1        0.0457
     15 H           1.9966    1.2304    0.0000 H       1  LIG1        0.0811
     16 H           0.3282    2.1936    0.0000 H       1  LIG1        0.0653
     17 H          -1.5113    1.9821    0.0000 H       1  LIG1        0.0851
     18 H          -1.5113   -1.4479    0.0000 H       1  LIG1        0.1033
@<TRIPOS>BOND
     1     1     2    1
     2     2     3   ar
     3     3     4   ar
     4     4     5   ar
     5     5     6   ar
     6     6     7   ar
     7     7     8   ar
     8     8     9   ar
     9     5     9   ar
    10     9    10   ar
    11     2    10   ar
    12    10    11    2
    13     1    12    1
    14     1    13    1
    15     1    14    1
    16     3    15    1
    17     4    16    1
    18     6    17    1
    19     8    18    1
