@<TRIPOS>MOLECULE
O=c1[nH]c(=O)n2ccccn12
 16 17 0 0 0
SMALL
GASTEIGER
Energy = 0

@<TRIPOS>ATOM
      1 O           0.9136   -1.4521    0.0000 O.2     1  LIG1       -0.2446
      2 C           0.6586   -0.6674    0.0000 C.ar    1  LIG1        0.3497
      3 N           1.1435    0.0000    0.0000 N.ar    1  LIG1       -0.2572
      4 C           0.6586    0.6674    0.0000 C.ar    1  LIG1        0.3497
      5 O           0.9136    1.4521    0.0000 O.2     1  LIG1       -0.2446
      6 N          -0.1260    0.4125    0.0000 N.ar    1  LIG1       -0.2015
      7 C          -0.8405    0.8250    0.0000 C.ar    1  LIG1        0.0330
      8 C          -1.5549    0.4125    0.0000 C.ar    1  LIG1       -0.0420
      9 C          -1.5549   -0.4125    0.0000 C.ar    1  LIG1       -0.0420
     10 C          -0.8405   -0.8250    0.0000 C.ar    1  LIG1        0.0330
     11 N          -0.1260   -0.4125    0.0000 N.ar    1  LIG1       -0.2015
     12 H           2.2260    0.0000    0.0000 H       1  LIG1        0.1750
     13 H          -0.8405    1.9265    0.0000 H       1  LIG1        0.0831
     14 H          -2.5088    0.9632    0.0000 H       1  LIG1        0.0633
     15 H          -2.5088   -0.9632    0.0000 H       1  LIG1        0.0633
     16 H          -0.8405   -1.9265    0.0000 H       1  LIG1        0.0831
@<TRIPOS>BOND
     1     1     2    2
     2     2     3   ar
     3     3     4   ar
     4     4     5    2
     5     4     6   ar
     6     6     7   ar
     7     7     8   ar
     8     8     9   ar
     9     9    10   ar
    10    10    11   ar
    11     2    11   ar
    12     6    11   ar
    13     3    12    1
    14     7    13    1
    15     8    14    1
    16     9    15    1
    17    10    16    1
