@<TRIPOS>MOLECULE
c1cc2[nH]cnn2c1
 13 14 0 0 0
SMALL
GASTEIGER
Energy = 0

@<TRIPOS>ATOM
      1 N           0.7539   -0.6755    0.0000 N.ar    1  LIG1       -0.3296
      2 C           1.2389   -0.0081    0.0000 C.ar    1  LIG1        0.1158
      3 N           0.7539    0.6594    0.0000 N.ar    1  LIG1       -0.1556
      4 N          -0.0307    0.4044    0.0000 N.ar    1  LIG1       -0.2223
      5 C          -0.8153    0.6594    0.0000 C.ar    1  LIG1        0.0315
      6 C          -1.3002   -0.0081    0.0000 C.ar    1  LIG1       -0.0401
      7 C          -0.8153   -0.6755    0.0000 C.ar    1  LIG1       -0.0179
      8 C          -0.0307   -0.4206    0.0000 C.ar    1  LIG1        0.1335
      9 H           1.0884   -1.7050    0.0000 H       1  LIG1        0.1682
     10 H           2.3404   -0.0081    0.0000 H       1  LIG1        0.1045
     11 H          -1.1557    1.7070    0.0000 H       1  LIG1        0.0831
     12 H          -2.4017   -0.0081    0.0000 H       1  LIG1        0.0634
     13 H          -1.1557   -1.7231    0.0000 H       1  LIG1        0.0654
@<TRIPOS>BOND
     1     1     2   ar
     2     2     3   ar
     3     3     4   ar
     4     4     5   ar
     5     5     6   ar
     6     6     7   ar
     7     7     8   ar
     8     1     8   ar
     9     4     8   ar
    10     1     9    1
    11     2    10    1
    12     5    11    1
    13     6    12    1
    14     7    13    1
