@<TRIPOS>MOLECULE
O=c1cccc2ccccn12
 18 19 0 0 0
SMALL
GASTEIGER
Energy = 0

@<TRIPOS>ATOM
      1 O           0.6317   -1.4529    0.0000 O.2     1  LIG1       -0.2673
      2 C           0.6317   -0.6279    0.0000 C.ar    1  LIG1        0.2557
      3 C           1.3462   -0.2154    0.0000 C.ar    1  LIG1        0.0034
      4 C           1.3462    0.6096    0.0000 C.ar    1  LIG1       -0.0547
      5 C           0.6317    1.0221    0.0000 C.ar    1  LIG1       -0.0376
      6 C          -0.0828    0.6096    0.0000 C.ar    1  LIG1        0.0494
      7 C          -0.7972    1.0221    0.0000 C.ar    1  LIG1       -0.0377
      8 C          -1.5117    0.6096    0.0000 C.ar    1  LIG1       -0.0584
      9 C          -1.5117   -0.2154    0.0000 C.ar    1  LIG1       -0.0450
     10 C          -0.7972   -0.6279    0.0000 C.ar    1  LIG1        0.0132
     11 N          -0.0828   -0.2154    0.0000 N.ar    1  LIG1       -0.2842
     12 H           2.3001   -0.7662    0.0000 H       1  LIG1        0.0672
     13 H           2.3001    1.1604    0.0000 H       1  LIG1        0.0620
     14 H           0.6317    2.1236    0.0000 H       1  LIG1        0.0638
     15 H          -0.7972    2.1236    0.0000 H       1  LIG1        0.0638
     16 H          -2.4656    1.1604    0.0000 H       1  LIG1        0.0619
     17 H          -2.4656   -0.7662    0.0000 H       1  LIG1        0.0632
     18 H          -0.7972   -1.7294    0.0000 H       1  LIG1        0.0814
@<TRIPOS>BOND
     1     1     2    2
     2     2     3   ar
     3     3     4   ar
     4     4     5   ar
     5     5     6   ar
     6     6     7   ar
     7     7     8   ar
     8     8     9   ar
     9     9    10   ar
    10    10    11   ar
    11     2    11   ar
    12     6    11   ar
    13     3    12    1
    14     4    13    1
    15     5    14    1
    16     7    15    1
    17     8    16    1
    18     9    17    1
    19    10    18    1
