@<TRIPOS>MOLECULE
O=c1[nH]ncc2ccnn12
 14 15 0 0 0
SMALL
GASTEIGER
Energy = 0

@<TRIPOS>ATOM
      1 O           0.4649   -1.4338    0.0000 O.2     1  LIG1       -0.2431
      2 C           0.4649   -0.6088    0.0000 C.ar    1  LIG1        0.3636
      3 N           1.1794   -0.1963    0.0000 N.ar    1  LIG1       -0.2267
      4 N           1.1794    0.6287    0.0000 N.ar    1  LIG1       -0.1760
      5 C           0.4649    1.0412    0.0000 C.ar    1  LIG1        0.0735
      6 C          -0.2496    0.6287    0.0000 C.ar    1  LIG1        0.0919
      7 C          -1.0342    0.8836    0.0000 C.ar    1  LIG1       -0.0148
      8 C          -1.5191    0.2162    0.0000 C.ar    1  LIG1        0.0506
      9 N          -1.0342   -0.4512    0.0000 N.ar    1  LIG1       -0.1704
     10 N          -0.2496   -0.1963    0.0000 N.ar    1  LIG1       -0.1793
     11 H           2.1169   -0.7376    0.0000 H       1  LIG1        0.1937
     12 H           0.4649    2.1427    0.0000 H       1  LIG1        0.0869
     13 H          -1.3746    1.9312    0.0000 H       1  LIG1        0.0655
     14 H          -2.6206    0.2162    0.0000 H       1  LIG1        0.0848
@<TRIPOS>BOND
     1     1     2    2
     2     2     3   ar
     3     3     4   ar
     4     4     5   ar
     5     5     6   ar
     6     6     7   ar
     7     7     8   ar
     8     8     9   ar
     9     9    10   ar
    10     2    10   ar
    11     6    10   ar
    12     3    11    1
    13     5    12    1
    14     7    13    1
    15     8    14    1
