@<TRIPOS>MOLECULE
Cn1c(=O)[nH]c2nccn2c1=O
 18 19 0 0 0
SMALL
GASTEIGER
Energy = 0

@<TRIPOS>ATOM
      1 C           1.5714   -0.6890    0.0000 C.3     1  LIG1        0.0210
      2 N           0.8569   -0.2765    0.0000 N.ar    1  LIG1       -0.2488
      3 C           0.8569    0.5485    0.0000 C.ar    1  LIG1        0.3328
      4 O           1.5714    0.9610    0.0000 O.2     1  LIG1       -0.2463
      5 N           0.1425    0.9610    0.0000 N.ar    1  LIG1       -0.2774
      6 C          -0.5720    0.5485    0.0000 C.ar    1  LIG1        0.2203
      7 N          -1.3566    0.8035    0.0000 N.ar    1  LIG1       -0.2202
      8 C          -1.8416    0.1360    0.0000 C.ar    1  LIG1        0.0480
      9 C          -1.3566   -0.5314    0.0000 C.ar    1  LIG1        0.0356
     10 N          -0.5720   -0.2765    0.0000 N.ar    1  LIG1       -0.2373
     11 C           0.1425   -0.6890    0.0000 C.ar    1  LIG1        0.3395
     12 O           0.1425   -1.5140    0.0000 O.2     1  LIG1       -0.2458
     13 H           2.4382    0.0514    0.0000 H       1  LIG1        0.0459
     14 H           1.6340   -1.3700   -0.9121 H       1  LIG1        0.0459
     15 H           1.6308   -1.3356    0.9370 H       1  LIG1        0.0459
     16 H           0.1425    2.0435    0.0000 H       1  LIG1        0.1733
     17 H          -2.9431    0.1360    0.0000 H       1  LIG1        0.0846
     18 H          -1.6969   -1.5790    0.0000 H       1  LIG1        0.0831
@<TRIPOS>BOND
     1     1     2    1
     2     2     3   ar
     3     3     4    2
     4     3     5   ar
     5     5     6   ar
     6     6     7   ar
     7     7     8   ar
     8     8     9   ar
     9     9    10   ar
    10     6    10   ar
    11    10    11   ar
    12     2    11   ar
    13    11    12    2
    14     1    13    1
    15     1    14    1
    16     1    15    1
    17     5    16    1
    18     8    17    1
    19     9    18    1
