@<TRIPOS>MOLECULE
O=c1ncnc2ccccn12
 16 17 0 0 0
SMALL
GASTEIGER
Energy = 0

@<TRIPOS>ATOM
      1 O           0.6039   -1.4642    0.0000 O.2     1  LIG1       -0.2440
      2 C           0.6039   -0.6392    0.0000 C.ar    1  LIG1        0.3554
      3 N           1.3184   -0.2267    0.0000 N.ar    1  LIG1       -0.1811
      4 C           1.3184    0.5983    0.0000 C.ar    1  LIG1        0.1237
      5 N           0.6039    1.0108    0.0000 N.ar    1  LIG1       -0.2178
      6 C          -0.1106    0.5983    0.0000 C.ar    1  LIG1        0.1431
      7 C          -0.8250    1.0108    0.0000 C.ar    1  LIG1       -0.0186
      8 C          -1.5395    0.5983    0.0000 C.ar    1  LIG1       -0.0569
      9 C          -1.5395   -0.2267    0.0000 C.ar    1  LIG1       -0.0449
     10 C          -0.8250   -0.6392    0.0000 C.ar    1  LIG1        0.0161
     11 N          -0.1106   -0.2267    0.0000 N.ar    1  LIG1       -0.2518
     12 H           2.2723    1.1491    0.0000 H       1  LIG1        0.1049
     13 H          -0.8250    2.1123    0.0000 H       1  LIG1        0.0654
     14 H          -2.4934    1.1491    0.0000 H       1  LIG1        0.0619
     15 H          -2.4934   -0.7775    0.0000 H       1  LIG1        0.0632
     16 H          -0.8250   -1.7407    0.0000 H       1  LIG1        0.0815
@<TRIPOS>BOND
     1     1     2    2
     2     2     3   ar
     3     3     4   ar
     4     4     5   ar
     5     5     6   ar
     6     6     7   ar
     7     7     8   ar
     8     8     9   ar
     9     9    10   ar
    10    10    11   ar
    11     2    11   ar
    12     6    11   ar
    13     4    12    1
    14     7    13    1
    15     8    14    1
    16     9    15    1
    17    10    16    1
