@<TRIPOS>MOLECULE
O=c1[nH]nnc2cncn12
 13 14 0 0 0
SMALL
GASTEIGER
Energy = 0

@<TRIPOS>ATOM
      1 O           0.4652   -1.4592    0.0000 O.2     1  LIG1       -0.2445
      2 C           0.4652   -0.6342    0.0000 C.ar    1  LIG1        0.3509
      3 N           1.1797   -0.2217    0.0000 N.ar    1  LIG1       -0.2092
      4 N           1.1797    0.6033    0.0000 N.ar    1  LIG1       -0.0622
      5 N           0.4652    1.0158    0.0000 N.ar    1  LIG1       -0.1112
      6 C          -0.2493    0.6033    0.0000 C.ar    1  LIG1        0.1846
      7 C          -1.0339    0.8582    0.0000 C.ar    1  LIG1        0.0740
      8 N          -1.5188    0.1908    0.0000 N.ar    1  LIG1       -0.2413
      9 C          -1.0339   -0.4767    0.0000 C.ar    1  LIG1        0.1061
     10 N          -0.2493   -0.2217    0.0000 N.ar    1  LIG1       -0.2327
     11 H           2.1172   -0.7630    0.0000 H       1  LIG1        0.1953
     12 H          -1.3743    1.9058    0.0000 H       1  LIG1        0.0868
     13 H          -1.3743   -1.5243    0.0000 H       1  LIG1        0.1034
@<TRIPOS>BOND
     1     1     2    2
     2     2     3   ar
     3     3     4   ar
     4     4     5   ar
     5     5     6   ar
     6     6     7   ar
     7     7     8   ar
     8     8     9   ar
     9     9    10   ar
    10     2    10   ar
    11     6    10   ar
    12     3    11    1
    13     7    12    1
    14     9    13    1
