@<TRIPOS>MOLECULE
Cn1ccc2nnnc2n1
 15 16 0 0 0
SMALL
GASTEIGER
Energy = 0

@<TRIPOS>ATOM
      1 C           1.8225   -0.7298    0.0000 C.3     1  LIG1        0.0302
      2 N           1.1080   -0.3173    0.0000 N.ar    1  LIG1       -0.2724
      3 C           1.1080    0.5077    0.0000 C.ar    1  LIG1        0.0259
      4 C           0.3935    0.9202    0.0000 C.ar    1  LIG1       -0.0130
      5 C          -0.3209    0.5077    0.0000 C.ar    1  LIG1        0.1367
      6 N          -1.1055    0.7626    0.0000 N.ar    1  LIG1       -0.1260
      7 N          -1.5905    0.0952    0.0000 N.ar    1  LIG1       -0.0405
      8 N          -1.1055   -0.5723    0.0000 N.ar    1  LIG1       -0.1058
      9 C          -0.3209   -0.3173    0.0000 C.ar    1  LIG1        0.2228
     10 N           0.3935   -0.7298    0.0000 N.ar    1  LIG1       -0.1479
     11 H           2.6893    0.0106    0.0000 H       1  LIG1        0.0473
     12 H           1.8851   -1.4108   -0.9121 H       1  LIG1        0.0473
     13 H           1.8819   -1.3764    0.9370 H       1  LIG1        0.0473
     14 H           2.0619    1.0585    0.0000 H       1  LIG1        0.0826
     15 H           0.3935    2.0217    0.0000 H       1  LIG1        0.0656
@<TRIPOS>BOND
     1     1     2    1
     2     2     3   ar
     3     3     4   ar
     4     4     5   ar
     5     5     6   ar
     6     6     7   ar
     7     7     8   ar
     8     8     9   ar
     9     5     9   ar
    10     9    10   ar
    11     2    10   ar
    12     1    11    1
    13     1    12    1
    14     1    13    1
    15     3    14    1
    16     4    15    1
