@<TRIPOS>MOLECULE
c1ncc2[nH]cccc12
 15 16 0 0 0
SMALL
GASTEIGER
Energy = 0

@<TRIPOS>ATOM
      1 N           0.5692   -0.8103    0.0000 N.ar    1  LIG1       -0.3594
      2 C           1.2837   -0.3978    0.0000 C.ar    1  LIG1        0.0022
      3 C           1.2837    0.4272    0.0000 C.ar    1  LIG1       -0.0451
      4 C           0.5692    0.8397    0.0000 C.ar    1  LIG1       -0.0498
      5 C          -0.1453    0.4272    0.0000 C.ar    1  LIG1        0.0179
      6 C          -0.9299    0.6821    0.0000 C.ar    1  LIG1        0.0368
      7 N          -1.4148    0.0147    0.0000 N.ar    1  LIG1       -0.2606
      8 C          -0.9299   -0.6527    0.0000 C.ar    1  LIG1        0.0515
      9 C          -0.1453   -0.3978    0.0000 C.ar    1  LIG1        0.0662
     10 H           0.5692   -1.8928    0.0000 H       1  LIG1        0.1654
     11 H           2.2376   -0.9486    0.0000 H       1  LIG1        0.0807
     12 H           2.2376    0.9780    0.0000 H       1  LIG1        0.0632
     13 H           0.5692    1.9412    0.0000 H       1  LIG1        0.0625
     14 H          -1.2703    1.7297    0.0000 H       1  LIG1        0.0836
     15 H          -1.2703   -1.7003    0.0000 H       1  LIG1        0.0851
@<TRIPOS>BOND
     1     1     2   ar
     2     2     3   ar
     3     3     4   ar
     4     4     5   ar
     5     5     6   ar
     6     6     7   ar
     7     7     8   ar
     8     8     9   ar
     9     1     9   ar
    10     5     9   ar
    11     1    10    1
    12     2    11    1
    13     3    12    1
    14     4    13    1
    15     6    14    1
    16     8    15    1
