@<TRIPOS>MOLECULE
O=c1ncn2cncnc2n1
 14 15 0 0 0
SMALL
GASTEIGER
Energy = 0

@<TRIPOS>ATOM
      1 O           1.9087   -0.7290    0.0000 O.2     1  LIG1       -0.2425
      2 C           1.1942   -0.3165    0.0000 C.ar    1  LIG1        0.3721
      3 N           1.1942    0.5085    0.0000 N.ar    1  LIG1       -0.1813
      4 C           0.4797    0.9210    0.0000 C.ar    1  LIG1        0.1094
      5 N          -0.2347    0.5085    0.0000 N.ar    1  LIG1       -0.2588
      6 C          -0.9492    0.9210    0.0000 C.ar    1  LIG1        0.1056
      7 N          -1.6637    0.5085    0.0000 N.ar    1  LIG1       -0.2254
      8 C          -1.6637   -0.3165    0.0000 C.ar    1  LIG1        0.1214
      9 N          -0.9492   -0.7290    0.0000 N.ar    1  LIG1       -0.2002
     10 C          -0.2347   -0.3165    0.0000 C.ar    1  LIG1        0.2428
     11 N           0.4797   -0.7290    0.0000 N.ar    1  LIG1       -0.1549
     12 H           0.4797    2.0225    0.0000 H       1  LIG1        0.1035
     13 H          -0.9492    2.0225    0.0000 H       1  LIG1        0.1034
     14 H          -2.6176   -0.8673    0.0000 H       1  LIG1        0.1048
@<TRIPOS>BOND
     1     1     2    2
     2     2     3   ar
     3     3     4   ar
     4     4     5   ar
     5     5     6   ar
     6     6     7   ar
     7     7     8   ar
     8     8     9   ar
     9     9    10   ar
    10     5    10   ar
    11    10    11   ar
    12     2    11   ar
    13     4    12    1
    14     6    13    1
    15     8    14    1
