@<TRIPOS>MOLECULE
Cn1ccc(=O)n2cccc12
 19 20 0 0 0
SMALL
GASTEIGER
Energy = 0

@<TRIPOS>ATOM
      1 C           0.4373   -1.6911    0.0000 C.3     1  LIG1        0.0132
      2 N           0.4373   -0.8661    0.0000 N.ar    1  LIG1       -0.3362
      3 C           1.1518   -0.4536    0.0000 C.ar    1  LIG1        0.0112
      4 C           1.1518    0.3714    0.0000 C.ar    1  LIG1        0.0195
      5 C           0.4373    0.7839    0.0000 C.ar    1  LIG1        0.2582
      6 O           0.4373    1.6089    0.0000 O.2     1  LIG1       -0.2672
      7 N          -0.2772    0.3714    0.0000 N.ar    1  LIG1       -0.2695
      8 C          -1.0618    0.6263    0.0000 C.ar    1  LIG1        0.0147
      9 C          -1.5467   -0.0411    0.0000 C.ar    1  LIG1       -0.0417
     10 C          -1.0618   -0.7085    0.0000 C.ar    1  LIG1       -0.0191
     11 C          -0.2772   -0.4536    0.0000 C.ar    1  LIG1        0.1204
     12 H           1.5119   -2.0716    0.0000 H       1  LIG1        0.0456
     13 H          -0.1212   -2.0858   -0.9121 H       1  LIG1        0.0456
     14 H          -0.0929   -2.0658    0.9370 H       1  LIG1        0.0456
     15 H           2.1057   -1.0044    0.0000 H       1  LIG1        0.0811
     16 H           2.1057    0.9222    0.0000 H       1  LIG1        0.0686
     17 H          -1.4022    1.6739    0.0000 H       1  LIG1        0.0814
     18 H          -2.6482   -0.0411    0.0000 H       1  LIG1        0.0633
     19 H          -1.4022   -1.7561    0.0000 H       1  LIG1        0.0654
@<TRIPOS>BOND
     1     1     2    1
     2     2     3   ar
     3     3     4   ar
     4     4     5   ar
     5     5     6    2
     6     5     7   ar
     7     7     8   ar
     8     8     9   ar
     9     9    10   ar
    10    10    11   ar
    11     2    11   ar
    12     7    11   ar
    13     1    12    1
    14     1    13    1
    15     1    14    1
    16     3    15    1
    17     4    16    1
    18     8    17    1
    19     9    18    1
    20    10    19    1
