@<TRIPOS>MOLECULE
c1nn2cncc2s1
 11 12 0 0 0
SMALL
GASTEIGER
Energy = 0

@<TRIPOS>ATOM
      1 S           0.6637   -0.5755    0.0000 S.2     1  LIG1       -0.0546
      2 C           1.1486    0.0920    0.0000 C.ar    1  LIG1        0.0874
      3 N           0.6637    0.7594    0.0000 N.ar    1  LIG1       -0.1657
      4 N          -0.1209    0.5045    0.0000 N.ar    1  LIG1       -0.2131
      5 C          -0.9055    0.7594    0.0000 C.ar    1  LIG1        0.1187
      6 N          -1.3905    0.0920    0.0000 N.ar    1  LIG1       -0.2410
      7 C          -0.9055   -0.5755    0.0000 C.ar    1  LIG1        0.0616
      8 C          -0.1209   -0.3205    0.0000 C.ar    1  LIG1        0.1237
      9 H           2.2501    0.0920    0.0000 H       1  LIG1        0.0926
     10 H          -1.2458    1.8070    0.0000 H       1  LIG1        0.1048
     11 H          -1.2458   -1.6231    0.0000 H       1  LIG1        0.0857
@<TRIPOS>BOND
     1     1     2   ar
     2     2     3   ar
     3     3     4   ar
     4     4     5   ar
     5     5     6   ar
     6     6     7   ar
     7     7     8   ar
     8     1     8   ar
     9     4     8   ar
    10     2     9    1
    11     5    10    1
    12     7    11    1
