@<TRIPOS>MOLECULE
c1cn2cnnc2o1
 11 12 0 0 0
SMALL
GASTEIGER
Energy = 0

@<TRIPOS>ATOM
      1 O           0.7938   -0.6375    0.0000 O.2     1  LIG1       -0.4299
      2 C           1.2787    0.0299    0.0000 C.ar    1  LIG1        0.1125
      3 C           0.7938    0.6973    0.0000 C.ar    1  LIG1        0.0505
      4 N           0.0092    0.4424    0.0000 N.ar    1  LIG1       -0.2554
      5 C          -0.7755    0.6973    0.0000 C.ar    1  LIG1        0.1266
      6 N          -1.2604    0.0299    0.0000 N.ar    1  LIG1       -0.1343
      7 N          -0.7755   -0.6375    0.0000 N.ar    1  LIG1       -0.0916
      8 C           0.0092   -0.3826    0.0000 C.ar    1  LIG1        0.3273
      9 H           2.3802    0.0299    0.0000 H       1  LIG1        0.1046
     10 H           1.1342    1.7449    0.0000 H       1  LIG1        0.0846
     11 H          -1.1159    1.7449    0.0000 H       1  LIG1        0.1052
@<TRIPOS>BOND
     1     1     2   ar
     2     2     3   ar
     3     3     4   ar
     4     4     5   ar
     5     5     6   ar
     6     6     7   ar
     7     7     8   ar
     8     1     8   ar
     9     4     8   ar
    10     2     9    1
    11     3    10    1
    12     5    11    1
