@<TRIPOS>MOLECULE
O=c1cccc2cn[nH]n12
 15 16 0 0 0
SMALL
GASTEIGER
Energy = 0

@<TRIPOS>ATOM
      1 O           0.5244   -1.4305    0.0000 O.2     1  LIG1       -0.2659
      2 C           0.5244   -0.6055    0.0000 C.ar    1  LIG1        0.2714
      3 C           1.2389   -0.1930    0.0000 C.ar    1  LIG1        0.0048
      4 C           1.2389    0.6320    0.0000 C.ar    1  LIG1       -0.0545
      5 C           0.5244    1.0445    0.0000 C.ar    1  LIG1       -0.0345
      6 C          -0.1901    0.6320    0.0000 C.ar    1  LIG1        0.0884
      7 C          -0.9747    0.8869    0.0000 C.ar    1  LIG1        0.0747
      8 N          -1.4596    0.2195    0.0000 N.ar    1  LIG1       -0.1639
      9 N          -0.9747   -0.4479    0.0000 N.ar    1  LIG1       -0.2096
     10 N          -0.1901   -0.1930    0.0000 N.ar    1  LIG1       -0.2019
     11 H           2.1928   -0.7438    0.0000 H       1  LIG1        0.0672
     12 H           2.1928    1.1828    0.0000 H       1  LIG1        0.0620
     13 H           0.5244    2.1460    0.0000 H       1  LIG1        0.0639
     14 H          -1.3151    1.9345    0.0000 H       1  LIG1        0.0869
     15 H          -1.3092   -1.4774    0.0000 H       1  LIG1        0.2110
@<TRIPOS>BOND
     1     1     2    2
     2     2     3   ar
     3     3     4   ar
     4     4     5   ar
     5     5     6   ar
     6     6     7   ar
     7     7     8   ar
     8     8     9   ar
     9     9    10   ar
    10     2    10   ar
    11     6    10   ar
    12     3    11    1
    13     4    12    1
    14     5    13    1
    15     7    14    1
    16     9    15    1
