@<TRIPOS>MOLECULE
c1ccc2nncnc2c1
 15 16 0 0 0
SMALL
GASTEIGER
Energy = 0

@<TRIPOS>ATOM
      1 C           1.4742   -0.4190    0.0000 C.ar    1  LIG1       -0.0596
      2 C           1.4742    0.4060    0.0000 C.ar    1  LIG1       -0.0596
      3 C           0.7597    0.8185    0.0000 C.ar    1  LIG1       -0.0325
      4 C           0.0452    0.4060    0.0000 C.ar    1  LIG1        0.1115
      5 N          -0.6692    0.8185    0.0000 N.ar    1  LIG1       -0.1463
      6 N          -1.3837    0.4060    0.0000 N.ar    1  LIG1       -0.1372
      7 C          -1.3837   -0.4190    0.0000 C.ar    1  LIG1        0.1389
      8 N          -0.6692   -0.8315    0.0000 N.ar    1  LIG1       -0.2320
      9 C           0.0452   -0.4190    0.0000 C.ar    1  LIG1        0.0927
     10 C           0.7597   -0.8315    0.0000 C.ar    1  LIG1       -0.0341
     11 H           2.4281   -0.9698    0.0000 H       1  LIG1        0.0618
     12 H           2.4281    0.9568    0.0000 H       1  LIG1        0.0618
     13 H           0.7597    1.9200    0.0000 H       1  LIG1        0.0640
     14 H          -2.3376   -0.9698    0.0000 H       1  LIG1        0.1066
     15 H           0.7597   -1.9330    0.0000 H       1  LIG1        0.0639
@<TRIPOS>BOND
     1     1     2   ar
     2     2     3   ar
     3     3     4   ar
     4     4     5   ar
     5     5     6   ar
     6     6     7   ar
     7     7     8   ar
     8     8     9   ar
     9     4     9   ar
    10     9    10   ar
    11     1    10   ar
    12     1    11    1
    13     2    12    1
    14     3    13    1
    15     7    14    1
    16    10    15    1
