@<TRIPOS>MOLECULE
Cn1ccc2nccnc12
 17 18 0 0 0
SMALL
GASTEIGER
Energy = 0

@<TRIPOS>ATOM
      1 C           1.0887   -1.3032    0.0000 C.3     1  LIG1        0.0133
      2 N           0.8337   -0.5186    0.0000 N.ar    1  LIG1       -0.3337
      3 C           1.3187    0.1489    0.0000 C.ar    1  LIG1        0.0083
      4 C           0.8337    0.8163    0.0000 C.ar    1  LIG1       -0.0165
      5 C           0.0491    0.5614    0.0000 C.ar    1  LIG1        0.1075
      6 N          -0.6654    0.9739    0.0000 N.ar    1  LIG1       -0.2504
      7 C          -1.3798    0.5614    0.0000 C.ar    1  LIG1        0.0465
      8 C          -1.3798   -0.2636    0.0000 C.ar    1  LIG1        0.0480
      9 N          -0.6654   -0.6761    0.0000 N.ar    1  LIG1       -0.2343
     10 C           0.0491   -0.2636    0.0000 C.ar    1  LIG1        0.1589
     11 H           2.2283   -1.3330    0.0000 H       1  LIG1        0.0456
     12 H           0.6796   -1.8512   -0.9121 H       1  LIG1        0.0456
     13 H           0.7002   -1.8235    0.9370 H       1  LIG1        0.0456
     14 H           2.4202    0.1489    0.0000 H       1  LIG1        0.0810
     15 H           1.1740    1.8639    0.0000 H       1  LIG1        0.0654
     16 H          -2.3337    1.1121    0.0000 H       1  LIG1        0.0845
     17 H          -2.3337   -0.8143    0.0000 H       1  LIG1        0.0846
@<TRIPOS>BOND
     1     1     2    1
     2     2     3   ar
     3     3     4   ar
     4     4     5   ar
     5     5     6   ar
     6     6     7   ar
     7     7     8   ar
     8     8     9   ar
     9     9    10   ar
    10     2    10   ar
    11     5    10   ar
    12     1    11    1
    13     1    12    1
    14     1    13    1
    15     3    14    1
    16     4    15    1
    17     7    16    1
    18     8    17    1
