@<TRIPOS>MOLECULE
Cn1nnc2ncccc12
 16 17 0 0 0
SMALL
GASTEIGER
Energy = 0

@<TRIPOS>ATOM
      1 C           1.0448   -1.3288    0.0000 C.3     1  LIG1        0.0326
      2 N           0.7898   -0.5441    0.0000 N.ar    1  LIG1       -0.2454
      3 N           1.2747    0.1233    0.0000 N.ar    1  LIG1       -0.0633
      4 N           0.7898    0.7907    0.0000 N.ar    1  LIG1       -0.1093
      5 C           0.0052    0.5358    0.0000 C.ar    1  LIG1        0.2015
      6 N          -0.7093    0.9483    0.0000 N.ar    1  LIG1       -0.2330
      7 C          -1.4237    0.5358    0.0000 C.ar    1  LIG1        0.0301
      8 C          -1.4237   -0.2892    0.0000 C.ar    1  LIG1       -0.0415
      9 C          -0.7093   -0.7017    0.0000 C.ar    1  LIG1       -0.0315
     10 C           0.0052   -0.2892    0.0000 C.ar    1  LIG1        0.1074
     11 H           2.1844   -1.3586    0.0000 H       1  LIG1        0.0473
     12 H           0.6357   -1.8767   -0.9121 H       1  LIG1        0.0473
     13 H           0.6563   -1.8491    0.9370 H       1  LIG1        0.0473
     14 H          -2.3776    1.0865    0.0000 H       1  LIG1        0.0830
     15 H          -2.3776   -0.8399    0.0000 H       1  LIG1        0.0633
     16 H          -0.7093   -1.8032    0.0000 H       1  LIG1        0.0640
@<TRIPOS>BOND
     1     1     2    1
     2     2     3   ar
     3     3     4   ar
     4     4     5   ar
     5     5     6   ar
     6     6     7   ar
     7     7     8   ar
     8     8     9   ar
     9     9    10   ar
    10     2    10   ar
    11     5    10   ar
    12     1    11    1
    13     1    12    1
    14     1    13    1
    15     7    14    1
    16     8    15    1
    17     9    16    1
