@<TRIPOS>MOLECULE
Cn1cnc2cnncc12
 16 17 0 0 0
SMALL
GASTEIGER
Energy = 0

@<TRIPOS>ATOM
      1 C           1.0979   -1.3159    0.0000 C.3     1  LIG1        0.0133
      2 N           0.8430   -0.5313    0.0000 N.ar    1  LIG1       -0.3319
      3 C           1.3279    0.1362    0.0000 C.ar    1  LIG1        0.0969
      4 N           0.8430    0.8036    0.0000 N.ar    1  LIG1       -0.2341
      5 C           0.0584    0.5487    0.0000 C.ar    1  LIG1        0.1102
      6 C          -0.6561    0.9612    0.0000 C.ar    1  LIG1        0.0773
      7 N          -1.3706    0.5487    0.0000 N.ar    1  LIG1       -0.1554
      8 N          -1.3706   -0.2763    0.0000 N.ar    1  LIG1       -0.1555
      9 C          -0.6561   -0.6888    0.0000 C.ar    1  LIG1        0.0755
     10 C           0.0584   -0.2763    0.0000 C.ar    1  LIG1        0.0900
     11 H           2.2375   -1.3458    0.0000 H       1  LIG1        0.0456
     12 H           0.6887   -1.8638   -0.9121 H       1  LIG1        0.0456
     13 H           0.7094   -1.8361    0.9370 H       1  LIG1        0.0456
     14 H           2.4294    0.1362    0.0000 H       1  LIG1        0.1029
     15 H          -0.6561    2.0627    0.0000 H       1  LIG1        0.0870
     16 H          -0.6561   -1.7903    0.0000 H       1  LIG1        0.0870
@<TRIPOS>BOND
     1     1     2    1
     2     2     3   ar
     3     3     4   ar
     4     4     5   ar
     5     5     6   ar
     6     6     7   ar
     7     7     8   ar
     8     8     9   ar
     9     9    10   ar
    10     2    10   ar
    11     5    10   ar
    12     1    11    1
    13     1    12    1
    14     1    13    1
    15     3    14    1
    16     6    15    1
    17     9    16    1
