@<TRIPOS>MOLECULE
O=c1cc2cc[nH]c2c[nH]1
 16 17 0 0 0
SMALL
GASTEIGER
Energy = 0

@<TRIPOS>ATOM
      1 O           1.7299   -0.7388    0.0000 O.2     1  LIG1       -0.2679
      2 C           1.0154   -0.3263    0.0000 C.ar    1  LIG1        0.2494
      3 N           1.0154    0.4987    0.0000 N.ar    1  LIG1       -0.3271
      4 C           0.3009    0.9112    0.0000 C.ar    1  LIG1        0.0288
      5 C          -0.4136    0.4987    0.0000 C.ar    1  LIG1        0.0629
      6 N          -1.1982    0.7537    0.0000 N.ar    1  LIG1       -0.3595
      7 C          -1.6831    0.0862    0.0000 C.ar    1  LIG1        0.0028
      8 C          -1.1982   -0.5812    0.0000 C.ar    1  LIG1       -0.0364
      9 C          -0.4136   -0.3263    0.0000 C.ar    1  LIG1        0.0062
     10 C           0.3009   -0.7388    0.0000 C.ar    1  LIG1        0.0119
     11 H           1.9529    1.0400    0.0000 H       1  LIG1        0.1684
     12 H           0.3009    2.0127    0.0000 H       1  LIG1        0.0829
     13 H          -1.5327    1.7832    0.0000 H       1  LIG1        0.1654
     14 H          -2.7846    0.0862    0.0000 H       1  LIG1        0.0807
     15 H          -1.5386   -1.6288    0.0000 H       1  LIG1        0.0638
     16 H           0.3009   -1.8403    0.0000 H       1  LIG1        0.0678
@<TRIPOS>BOND
     1     1     2    2
     2     2     3   ar
     3     3     4   ar
     4     4     5   ar
     5     5     6   ar
     6     6     7   ar
     7     7     8   ar
     8     8     9   ar
     9     5     9   ar
    10     9    10   ar
    11     2    10   ar
    12     3    11    1
    13     4    12    1
    14     6    13    1
    15     7    14    1
    16     8    15    1
    17    10    16    1
