@<TRIPOS>MOLECULE
O=c1ncn2cccc2[nH]1
 15 16 0 0 0
SMALL
GASTEIGER
Energy = 0

@<TRIPOS>ATOM
      1 O           1.7132    0.7235    0.0000 O.2     1  LIG1       -0.2446
      2 C           0.9987    0.3110    0.0000 C.ar    1  LIG1        0.3487
      3 N           0.2843    0.7235    0.0000 N.ar    1  LIG1       -0.2921
      4 C          -0.4302    0.3110    0.0000 C.ar    1  LIG1        0.1202
      5 C          -1.2148    0.5660    0.0000 C.ar    1  LIG1       -0.0192
      6 C          -1.6998   -0.1015    0.0000 C.ar    1  LIG1       -0.0417
      7 C          -1.2148   -0.7689    0.0000 C.ar    1  LIG1        0.0126
      8 N          -0.4302   -0.5140    0.0000 N.ar    1  LIG1       -0.2930
      9 C           0.2843   -0.9265    0.0000 C.ar    1  LIG1        0.1068
     10 N           0.9987   -0.5140    0.0000 N.ar    1  LIG1       -0.1830
     11 H           0.2843    1.8060    0.0000 H       1  LIG1        0.1718
     12 H          -1.5551    1.6136    0.0000 H       1  LIG1        0.0654
     13 H          -2.8013   -0.1015    0.0000 H       1  LIG1        0.0633
     14 H          -1.5551   -1.8165    0.0000 H       1  LIG1        0.0814
     15 H           0.2843   -2.0280    0.0000 H       1  LIG1        0.1034
@<TRIPOS>BOND
     1     1     2    2
     2     2     3   ar
     3     3     4   ar
     4     4     5   ar
     5     5     6   ar
     6     6     7   ar
     7     7     8   ar
     8     4     8   ar
     9     8     9   ar
    10     9    10   ar
    11     2    10   ar
    12     3    11    1
    13     5    12    1
    14     6    13    1
    15     7    14    1
    16     9    15    1
