@<TRIPOS>MOLECULE
Cn1ccc2scnc2c1=O
 17 18 0 0 0
SMALL
GASTEIGER
Energy = 0

@<TRIPOS>ATOM
      1 C          -1.8929   -0.6684    0.0000 C.3     1  LIG1        0.0148
      2 N          -1.1785   -0.2559    0.0000 N.ar    1  LIG1       -0.3165
      3 C          -1.1785    0.5691    0.0000 C.ar    1  LIG1        0.0088
      4 C          -0.4640    0.9816    0.0000 C.ar    1  LIG1       -0.0295
      5 C           0.2505    0.5691    0.0000 C.ar    1  LIG1        0.0456
      6 C           0.2505   -0.2559    0.0000 C.ar    1  LIG1        0.1424
      7 N           1.0351   -0.5109    0.0000 N.ar    1  LIG1       -0.2420
      8 C           1.5200    0.1566    0.0000 C.ar    1  LIG1        0.0661
      9 S           1.0351    0.8240    0.0000 S.2     1  LIG1       -0.0752
     10 C          -0.4640   -0.6684    0.0000 C.ar    1  LIG1        0.2776
     11 O          -0.4640   -1.4934    0.0000 O.2     1  LIG1       -0.2653
     12 H          -2.7598    0.0719    0.0000 H       1  LIG1        0.0457
     13 H          -1.9554   -1.3494    0.9121 H       1  LIG1        0.0457
     14 H          -1.9523   -1.3150   -0.9370 H       1  LIG1        0.0457
     15 H          -2.1324    1.1199    0.0000 H       1  LIG1        0.0810
     16 H          -0.4640    2.0831    0.0000 H       1  LIG1        0.0644
     17 H           2.6215    0.1566    0.0000 H       1  LIG1        0.0908
@<TRIPOS>BOND
     1     1     2    1
     2     2     3   ar
     3     3     4   ar
     4     4     5   ar
     5     5     6   ar
     6     6     7   ar
     7     7     8   ar
     8     8     9   ar
     9     5     9   ar
    10     6    10   ar
    11     2    10   ar
    12    10    11    2
    13     1    12    1
    14     1    13    1
    15     1    14    1
    16     3    15    1
    17     4    16    1
    18     8    17    1
