@<TRIPOS>MOLECULE
Cn1cc2ccncn2c1=O
 18 19 0 0 0
SMALL
GASTEIGER
Energy = 0

@<TRIPOS>ATOM
      1 C           1.9251    0.1751    0.0000 C.3     1  LIG1        0.0162
      2 N           1.1001    0.1751    0.0000 N.ar    1  LIG1       -0.3013
      3 C           0.6152    0.8425    0.0000 C.ar    1  LIG1        0.0331
      4 C          -0.1695    0.5876    0.0000 C.ar    1  LIG1        0.0699
      5 C          -0.8839    1.0001    0.0000 C.ar    1  LIG1       -0.0181
      6 C          -1.5984    0.5876    0.0000 C.ar    1  LIG1        0.0313
      7 N          -1.5984   -0.2374    0.0000 N.ar    1  LIG1       -0.2450
      8 C          -0.8839   -0.6499    0.0000 C.ar    1  LIG1        0.1045
      9 N          -0.1695   -0.2374    0.0000 N.ar    1  LIG1       -0.2514
     10 C           0.6152   -0.4924    0.0000 C.ar    1  LIG1        0.3347
     11 O           0.8701   -1.2770    0.0000 O.2     1  LIG1       -0.2459
     12 H           2.3056    1.2497    0.0000 H       1  LIG1        0.0457
     13 H           2.3198   -0.3834   -0.9121 H       1  LIG1        0.0457
     14 H           2.2998   -0.3551    0.9370 H       1  LIG1        0.0457
     15 H           0.9556    1.8901    0.0000 H       1  LIG1        0.0831
     16 H          -0.8839    2.1016    0.0000 H       1  LIG1        0.0654
     17 H          -2.5523    1.1384    0.0000 H       1  LIG1        0.0831
     18 H          -0.8839   -1.7514    0.0000 H       1  LIG1        0.1033
@<TRIPOS>BOND
     1     1     2    1
     2     2     3   ar
     3     3     4   ar
     4     4     5   ar
     5     5     6   ar
     6     6     7   ar
     7     7     8   ar
     8     8     9   ar
     9     4     9   ar
    10     9    10   ar
    11     2    10   ar
    12    10    11    2
    13     1    12    1
    14     1    13    1
    15     1    14    1
    16     3    15    1
    17     5    16    1
    18     6    17    1
    19     8    18    1
