@<TRIPOS>MOLECULE
O=c1[nH]cc2cc[nH]cc12
 16 17 0 0 0
SMALL
GASTEIGER
Energy = 0

@<TRIPOS>ATOM
      1 O           1.0480   -1.2643    0.0000 O.2     1  LIG1       -0.2672
      2 C           0.7930   -0.4796    0.0000 C.ar    1  LIG1        0.2579
      3 N           1.2780    0.1878    0.0000 N.ar    1  LIG1       -0.3280
      4 C           0.7930    0.8552    0.0000 C.ar    1  LIG1        0.0129
      5 C           0.0084    0.6003    0.0000 C.ar    1  LIG1        0.0061
      6 C          -0.7061    1.0128    0.0000 C.ar    1  LIG1       -0.0365
      7 C          -1.4205    0.6003    0.0000 C.ar    1  LIG1        0.0022
      8 N          -1.4205   -0.2247    0.0000 N.ar    1  LIG1       -0.3663
      9 C          -0.7061   -0.6372    0.0000 C.ar    1  LIG1        0.0146
     10 C           0.0084   -0.2247    0.0000 C.ar    1  LIG1        0.0637
     11 H           2.3605    0.1878    0.0000 H       1  LIG1        0.1684
     12 H           1.1333    1.9028    0.0000 H       1  LIG1        0.0814
     13 H          -0.7061    2.1143    0.0000 H       1  LIG1        0.0638
     14 H          -2.3744    1.1510    0.0000 H       1  LIG1        0.0807
     15 H          -2.3580   -0.7659    0.0000 H       1  LIG1        0.1648
     16 H          -0.7061   -1.7387    0.0000 H       1  LIG1        0.0815
@<TRIPOS>BOND
     1     1     2    2
     2     2     3   ar
     3     3     4   ar
     4     4     5   ar
     5     5     6   ar
     6     6     7   ar
     7     7     8   ar
     8     8     9   ar
     9     9    10   ar
    10     2    10   ar
    11     5    10   ar
    12     3    11    1
    13     4    12    1
    14     6    13    1
    15     7    14    1
    16     8    15    1
    17     9    16    1
