@<TRIPOS>MOLECULE
Cn1cnc2cocc12
 15 16 0 0 0
SMALL
GASTEIGER
Energy = 0

@<TRIPOS>ATOM
      1 C           0.9486   -1.3018    0.0000 C.3     1  LIG1        0.0134
      2 N           0.6937   -0.5172    0.0000 N.ar    1  LIG1       -0.3307
      3 C           1.1786    0.1502    0.0000 C.ar    1  LIG1        0.0970
      4 N           0.6937    0.8177    0.0000 N.ar    1  LIG1       -0.2326
      5 C          -0.0909    0.5627    0.0000 C.ar    1  LIG1        0.1266
      6 C          -0.8755    0.8177    0.0000 C.ar    1  LIG1        0.1191
      7 O          -1.3605    0.1502    0.0000 O.2     1  LIG1       -0.4667
      8 C          -0.8755   -0.5172    0.0000 C.ar    1  LIG1        0.1173
      9 C          -0.0909   -0.2623    0.0000 C.ar    1  LIG1        0.1066
     10 H           2.0882   -1.3317    0.0000 H       1  LIG1        0.0456
     11 H           0.5394   -1.8497   -0.9121 H       1  LIG1        0.0456
     12 H           0.5601   -1.8220    0.9370 H       1  LIG1        0.0456
     13 H           2.2801    0.1502    0.0000 H       1  LIG1        0.1029
     14 H          -1.2158    1.8653    0.0000 H       1  LIG1        0.1052
     15 H          -1.2158   -1.5648    0.0000 H       1  LIG1        0.1051
@<TRIPOS>BOND
     1     1     2    1
     2     2     3   ar
     3     3     4   ar
     4     4     5   ar
     5     5     6   ar
     6     6     7   ar
     7     7     8   ar
     8     8     9   ar
     9     2     9   ar
    10     5     9   ar
    11     1    10    1
    12     1    11    1
    13     1    12    1
    14     3    13    1
    15     6    14    1
    16     8    15    1
