@<TRIPOS>MOLECULE
c1cc2cnccc2cn1
 16 17 0 0 0
SMALL
GASTEIGER
Energy = 0

@<TRIPOS>ATOM
      1 C           1.4289    0.4125    0.0000 C.ar    1  LIG1        0.0282
      2 C           0.7145    0.8250    0.0000 C.ar    1  LIG1       -0.0344
      3 C          -0.0000    0.4125    0.0000 C.ar    1  LIG1        0.0031
      4 C          -0.7145    0.8250    0.0000 C.ar    1  LIG1        0.0353
      5 N          -1.4289    0.4125    0.0000 N.ar    1  LIG1       -0.2626
      6 C          -1.4289   -0.4125    0.0000 C.ar    1  LIG1        0.0282
      7 C          -0.7145   -0.8250    0.0000 C.ar    1  LIG1       -0.0344
      8 C          -0.0000   -0.4125    0.0000 C.ar    1  LIG1        0.0031
      9 C           0.7145   -0.8250    0.0000 C.ar    1  LIG1        0.0353
     10 N           1.4289   -0.4125    0.0000 N.ar    1  LIG1       -0.2626
     11 H           2.3828    0.9632    0.0000 H       1  LIG1        0.0830
     12 H           0.7145    1.9265    0.0000 H       1  LIG1        0.0639
     13 H          -0.7145    1.9265    0.0000 H       1  LIG1        0.0836
     14 H          -2.3828   -0.9632    0.0000 H       1  LIG1        0.0830
     15 H          -0.7145   -1.9265    0.0000 H       1  LIG1        0.0639
     16 H           0.7145   -1.9265    0.0000 H       1  LIG1        0.0836
@<TRIPOS>BOND
     1     1     2   ar
     2     2     3   ar
     3     3     4   ar
     4     4     5   ar
     5     5     6   ar
     6     6     7   ar
     7     7     8   ar
     8     3     8   ar
     9     8     9   ar
    10     9    10   ar
    11     1    10   ar
    12     1    11    1
    13     2    12    1
    14     4    13    1
    15     6    14    1
    16     7    15    1
    17     9    16    1
