@<TRIPOS>MOLECULE
c1n[nH]c2cccnc12
 14 15 0 0 0
SMALL
GASTEIGER
Energy = 0

@<TRIPOS>ATOM
      1 N           0.9136   -0.6702    0.0000 N.ar    1  LIG1       -0.2754
      2 N           1.3986   -0.0028    0.0000 N.ar    1  LIG1       -0.1796
      3 C           0.9136    0.6647    0.0000 C.ar    1  LIG1        0.0751
      4 C           0.1290    0.4097    0.0000 C.ar    1  LIG1        0.1082
      5 N          -0.5855    0.8222    0.0000 N.ar    1  LIG1       -0.2519
      6 C          -1.2999    0.4097    0.0000 C.ar    1  LIG1        0.0284
      7 C          -1.2999   -0.4153    0.0000 C.ar    1  LIG1       -0.0416
      8 C          -0.5855   -0.8278    0.0000 C.ar    1  LIG1       -0.0334
      9 C           0.1290   -0.4153    0.0000 C.ar    1  LIG1        0.0840
     10 H           1.2481   -1.6997    0.0000 H       1  LIG1        0.1890
     11 H           1.2539    1.7123    0.0000 H       1  LIG1        0.0870
     12 H          -2.2538    0.9604    0.0000 H       1  LIG1        0.0830
     13 H          -2.2538   -0.9660    0.0000 H       1  LIG1        0.0633
     14 H          -0.5855   -1.9293    0.0000 H       1  LIG1        0.0640
@<TRIPOS>BOND
     1     1     2   ar
     2     2     3   ar
     3     3     4   ar
     4     4     5   ar
     5     5     6   ar
     6     6     7   ar
     7     7     8   ar
     8     8     9   ar
     9     1     9   ar
    10     4     9   ar
    11     1    10    1
    12     3    11    1
    13     6    12    1
    14     7    13    1
    15     8    14    1
