@<TRIPOS>MOLECULE
c1ncc2nnoc2n1
 11 12 0 0 0
SMALL
GASTEIGER
Energy = 0

@<TRIPOS>ATOM
      1 O           0.9049   -0.6495    0.0000 O.2     1  LIG1       -0.3151
      2 N           1.3898    0.0179    0.0000 N.ar    1  LIG1        0.0364
      3 N           0.9049    0.6854    0.0000 N.ar    1  LIG1       -0.1076
      4 C           0.1203    0.4304    0.0000 C.ar    1  LIG1        0.1713
      5 C          -0.5942    0.8429    0.0000 C.ar    1  LIG1        0.0619
      6 N          -1.3087    0.4304    0.0000 N.ar    1  LIG1       -0.2413
      7 C          -1.3087   -0.3946    0.0000 C.ar    1  LIG1        0.1199
      8 N          -0.5942   -0.8071    0.0000 N.ar    1  LIG1       -0.1972
      9 C           0.1203   -0.3946    0.0000 C.ar    1  LIG1        0.2816
     10 H          -0.5942    1.9444    0.0000 H       1  LIG1        0.0854
     11 H          -2.2626   -0.9454    0.0000 H       1  LIG1        0.1048
@<TRIPOS>BOND
     1     1     2   ar
     2     2     3   ar
     3     3     4   ar
     4     4     5   ar
     5     5     6   ar
     6     6     7   ar
     7     7     8   ar
     8     8     9   ar
     9     1     9   ar
    10     4     9   ar
    11     5    10    1
    12     7    11    1
