@<TRIPOS>MOLECULE
Cn1cc2cnnnc2n1
 15 16 0 0 0
SMALL
GASTEIGER
Energy = 0

@<TRIPOS>ATOM
      1 C           2.0581    0.0229    0.0000 C.3     1  LIG1        0.0303
      2 N           1.2331    0.0229    0.0000 N.ar    1  LIG1       -0.2718
      3 C           0.7482    0.6903    0.0000 C.ar    1  LIG1        0.0361
      4 C          -0.0364    0.4354    0.0000 C.ar    1  LIG1        0.0601
      5 C          -0.7509    0.8479    0.0000 C.ar    1  LIG1        0.0638
      6 N          -1.4653    0.4354    0.0000 N.ar    1  LIG1       -0.1370
      7 N          -1.4653   -0.3896    0.0000 N.ar    1  LIG1       -0.0412
      8 N          -0.7509   -0.8021    0.0000 N.ar    1  LIG1       -0.1074
      9 C          -0.0364   -0.3896    0.0000 C.ar    1  LIG1        0.2059
     10 N           0.7482   -0.6445    0.0000 N.ar    1  LIG1       -0.1494
     11 H           2.4386    1.0975    0.0000 H       1  LIG1        0.0473
     12 H           2.4528   -0.5356   -0.9121 H       1  LIG1        0.0473
     13 H           2.4328   -0.5073    0.9370 H       1  LIG1        0.0473
     14 H           1.0886    1.7379    0.0000 H       1  LIG1        0.0833
     15 H          -0.7509    1.9494    0.0000 H       1  LIG1        0.0856
@<TRIPOS>BOND
     1     1     2    1
     2     2     3   ar
     3     3     4   ar
     4     4     5   ar
     5     5     6   ar
     6     6     7   ar
     7     7     8   ar
     8     8     9   ar
     9     4     9   ar
    10     9    10   ar
    11     2    10   ar
    12     1    11    1
    13     1    12    1
    14     1    13    1
    15     3    14    1
    16     5    15    1
