@<TRIPOS>MOLECULE
O=c1[nH]c2cncnc2o1
 13 14 0 0 0
SMALL
GASTEIGER
Energy = 0

@<TRIPOS>ATOM
      1 O           1.9712    0.0161    0.0000 O.2     1  LIG1       -0.2228
      2 C           1.1462    0.0161    0.0000 C.ar    1  LIG1        0.4200
      3 N           0.6613    0.6835    0.0000 N.ar    1  LIG1       -0.2854
      4 C          -0.1233    0.4286    0.0000 C.ar    1  LIG1        0.1255
      5 C          -0.8378    0.8411    0.0000 C.ar    1  LIG1        0.0580
      6 N          -1.5523    0.4286    0.0000 N.ar    1  LIG1       -0.2414
      7 C          -1.5523   -0.3964    0.0000 C.ar    1  LIG1        0.1199
      8 N          -0.8378   -0.8089    0.0000 N.ar    1  LIG1       -0.1992
      9 C          -0.1233   -0.3964    0.0000 C.ar    1  LIG1        0.2521
     10 O           0.6613   -0.6514    0.0000 O.2     1  LIG1       -0.3887
     11 H           0.9958    1.7130    0.0000 H       1  LIG1        0.1722
     12 H          -0.8378    1.9426    0.0000 H       1  LIG1        0.0853
     13 H          -2.5062   -0.9472    0.0000 H       1  LIG1        0.1048
@<TRIPOS>BOND
     1     1     2    2
     2     2     3   ar
     3     3     4   ar
     4     4     5   ar
     5     5     6   ar
     6     6     7   ar
     7     7     8   ar
     8     8     9   ar
     9     4     9   ar
    10     9    10   ar
    11     2    10   ar
    12     3    11    1
    13     5    12    1
    14     7    13    1
