@<TRIPOS>MOLECULE
Cn1cc2nccnc2c1
 17 18 0 0 0
SMALL
GASTEIGER
Energy = 0

@<TRIPOS>ATOM
      1 C           2.0355    0.0000    0.0000 C.3     1  LIG1        0.0115
      2 N           1.2105    0.0000    0.0000 N.ar    1  LIG1       -0.3522
      3 C           0.7256    0.6674    0.0000 C.ar    1  LIG1        0.0318
      4 C          -0.0591    0.4125    0.0000 C.ar    1  LIG1        0.1066
      5 N          -0.7735    0.8250    0.0000 N.ar    1  LIG1       -0.2504
      6 C          -1.4880    0.4125    0.0000 C.ar    1  LIG1        0.0464
      7 C          -1.4880   -0.4125    0.0000 C.ar    1  LIG1        0.0464
      8 N          -0.7735   -0.8250    0.0000 N.ar    1  LIG1       -0.2504
      9 C          -0.0591   -0.4125    0.0000 C.ar    1  LIG1        0.1066
     10 C           0.7256   -0.6674    0.0000 C.ar    1  LIG1        0.0318
     11 H           2.4160    1.0746    0.0000 H       1  LIG1        0.0455
     12 H           2.4302   -0.5585   -0.9121 H       1  LIG1        0.0455
     13 H           2.4102   -0.5302    0.9370 H       1  LIG1        0.0455
     14 H           1.0660    1.7150    0.0000 H       1  LIG1        0.0831
     15 H          -2.4419    0.9633    0.0000 H       1  LIG1        0.0845
     16 H          -2.4419   -0.9633    0.0000 H       1  LIG1        0.0845
     17 H           1.0660   -1.7150    0.0000 H       1  LIG1        0.0831
@<TRIPOS>BOND
     1     1     2    1
     2     2     3   ar
     3     3     4   ar
     4     4     5   ar
     5     5     6   ar
     6     6     7   ar
     7     7     8   ar
     8     8     9   ar
     9     4     9   ar
    10     9    10   ar
    11     2    10   ar
    12     1    11    1
    13     1    12    1
    14     1    13    1
    15     3    14    1
    16     6    15    1
    17     7    16    1
    18    10    17    1
