@<TRIPOS>MOLECULE
Cn1ccc(=O)c2c[nH]nc12
 18 19 0 0 0
SMALL
GASTEIGER
Energy = 0

@<TRIPOS>ATOM
      1 C           0.4701   -1.6754    0.0000 C.3     1  LIG1        0.0133
      2 N           0.4701   -0.8504    0.0000 N.ar    1  LIG1       -0.3334
      3 C           1.1845   -0.4379    0.0000 C.ar    1  LIG1        0.0098
      4 C           1.1845    0.3871    0.0000 C.ar    1  LIG1        0.0020
      5 C           0.4701    0.7996    0.0000 C.ar    1  LIG1        0.1924
      6 O           0.4701    1.6246    0.0000 O.2     1  LIG1       -0.2871
      7 C          -0.2444    0.3871    0.0000 C.ar    1  LIG1        0.0831
      8 C          -1.0290    0.6421    0.0000 C.ar    1  LIG1        0.0353
      9 N          -1.5140   -0.0254    0.0000 N.ar    1  LIG1       -0.2820
     10 N          -1.0290   -0.6928    0.0000 N.ar    1  LIG1       -0.1554
     11 C          -0.2444   -0.4379    0.0000 C.ar    1  LIG1        0.1655
     12 H           1.5447   -2.0559    0.0000 H       1  LIG1        0.0456
     13 H          -0.0884   -2.0701   -0.9121 H       1  LIG1        0.0456
     14 H          -0.0601   -2.0501    0.9370 H       1  LIG1        0.0456
     15 H           2.1384   -0.9886    0.0000 H       1  LIG1        0.0810
     16 H           2.1384    0.9378    0.0000 H       1  LIG1        0.0670
     17 H          -1.3693    1.6897    0.0000 H       1  LIG1        0.0831
     18 H          -2.5965   -0.0254    0.0000 H       1  LIG1        0.1883
@<TRIPOS>BOND
     1     1     2    1
     2     2     3   ar
     3     3     4   ar
     4     4     5   ar
     5     5     6    2
     6     5     7   ar
     7     7     8   ar
     8     8     9   ar
     9     9    10   ar
    10    10    11   ar
    11     2    11   ar
    12     7    11   ar
    13     1    12    1
    14     1    13    1
    15     1    14    1
    16     3    15    1
    17     4    16    1
    18     8    17    1
    19     9    18    1
