@<TRIPOS>MOLECULE
O=c1cn[nH]c2ccccc12
 17 18 0 0 0
SMALL
GASTEIGER
Energy = 0

@<TRIPOS>ATOM
      1 O           0.6023   -1.4792    0.0000 O.2     1  LIG1       -0.2855
      2 C           0.6023   -0.6542    0.0000 C.ar    1  LIG1        0.2077
      3 C           1.3168   -0.2417    0.0000 C.ar    1  LIG1        0.0950
      4 N           1.3168    0.5833    0.0000 N.ar    1  LIG1       -0.1780
      5 N           0.6023    0.9958    0.0000 N.ar    1  LIG1       -0.2768
      6 C          -0.1121    0.5833    0.0000 C.ar    1  LIG1        0.0679
      7 C          -0.8266    0.9958    0.0000 C.ar    1  LIG1       -0.0362
      8 C          -1.5411    0.5833    0.0000 C.ar    1  LIG1       -0.0597
      9 C          -1.5411   -0.2417    0.0000 C.ar    1  LIG1       -0.0610
     10 C          -0.8266   -0.6542    0.0000 C.ar    1  LIG1       -0.0489
     11 C          -0.1121   -0.2417    0.0000 C.ar    1  LIG1        0.0480
     12 H           2.2707   -0.7925    0.0000 H       1  LIG1        0.0887
     13 H           0.6023    2.0783    0.0000 H       1  LIG1        0.1889
     14 H          -0.8266    2.0973    0.0000 H       1  LIG1        0.0639
     15 H          -2.4950    1.1341    0.0000 H       1  LIG1        0.0618
     16 H          -2.4950   -0.7925    0.0000 H       1  LIG1        0.0618
     17 H          -0.8266   -1.7557    0.0000 H       1  LIG1        0.0625
@<TRIPOS>BOND
     1     1     2    2
     2     2     3   ar
     3     3     4   ar
     4     4     5   ar
     5     5     6   ar
     6     6     7   ar
     7     7     8   ar
     8     8     9   ar
     9     9    10   ar
    10    10    11   ar
    11     2    11   ar
    12     6    11   ar
    13     3    12    1
    14     5    13    1
    15     7    14    1
    16     8    15    1
    17     9    16    1
    18    10    17    1
