@<TRIPOS>MOLECULE
c1[nH]nc2cncnc12
 13 14 0 0 0
SMALL
GASTEIGER
Energy = 0

@<TRIPOS>ATOM
      1 N           1.4209    0.0044    0.0000 N.ar    1  LIG1       -0.2820
      2 C           0.9360    0.6718    0.0000 C.ar    1  LIG1        0.0484
      3 C           0.1514    0.4169    0.0000 C.ar    1  LIG1        0.1114
      4 N          -0.5631    0.8294    0.0000 N.ar    1  LIG1       -0.2323
      5 C          -1.2776    0.4169    0.0000 C.ar    1  LIG1        0.1168
      6 N          -1.2776   -0.4081    0.0000 N.ar    1  LIG1       -0.2415
      7 C          -0.5631   -0.8206    0.0000 C.ar    1  LIG1        0.0585
      8 C           0.1514   -0.4081    0.0000 C.ar    1  LIG1        0.1287
      9 N           0.9360   -0.6631    0.0000 N.ar    1  LIG1       -0.1708
     10 H           2.5034    0.0044    0.0000 H       1  LIG1        0.1883
     11 H           1.2764    1.7194    0.0000 H       1  LIG1        0.0845
     12 H          -2.2315    0.9677    0.0000 H       1  LIG1        0.1047
     13 H          -0.5631   -1.9221    0.0000 H       1  LIG1        0.0853
@<TRIPOS>BOND
     1     1     2   ar
     2     2     3   ar
     3     3     4   ar
     4     4     5   ar
     5     5     6   ar
     6     6     7   ar
     7     7     8   ar
     8     3     8   ar
     9     8     9   ar
    10     1     9   ar
    11     1    10    1
    12     2    11    1
    13     5    12    1
    14     7    13    1
