@<TRIPOS>MOLECULE
Cn1cnc2sncc2c1=O
 16 17 0 0 0
SMALL
GASTEIGER
Energy = 0

@<TRIPOS>ATOM
      1 C          -1.8932   -0.6887    0.0000 C.3     1  LIG1        0.0161
      2 N          -1.1787   -0.2762    0.0000 N.ar    1  LIG1       -0.3018
      3 C          -1.1787    0.5488    0.0000 C.ar    1  LIG1        0.0996
      4 N          -0.4642    0.9613    0.0000 N.ar    1  LIG1       -0.2283
      5 C           0.2502    0.5488    0.0000 C.ar    1  LIG1        0.1345
      6 C           0.2502   -0.2762    0.0000 C.ar    1  LIG1        0.0917
      7 C           1.0349   -0.5312    0.0000 C.ar    1  LIG1        0.0511
      8 N           1.5198    0.1363    0.0000 N.ar    1  LIG1       -0.2159
      9 S           1.0349    0.8037    0.0000 S.2     1  LIG1        0.0318
     10 C          -0.4642   -0.6887    0.0000 C.ar    1  LIG1        0.2634
     11 O          -0.4642   -1.5137    0.0000 O.2     1  LIG1       -0.2669
     12 H          -2.7600    0.0517    0.0000 H       1  LIG1        0.0457
     13 H          -1.9558   -1.3697    0.9121 H       1  LIG1        0.0457
     14 H          -1.9526   -1.3353   -0.9370 H       1  LIG1        0.0457
     15 H          -2.1326    1.0996    0.0000 H       1  LIG1        0.1030
     16 H           1.3753   -1.5788    0.0000 H       1  LIG1        0.0845
@<TRIPOS>BOND
     1     1     2    1
     2     2     3   ar
     3     3     4   ar
     4     4     5   ar
     5     5     6   ar
     6     6     7   ar
     7     7     8   ar
     8     8     9   ar
     9     5     9   ar
    10     6    10   ar
    11     2    10   ar
    12    10    11    2
    13     1    12    1
    14     1    13    1
    15     1    14    1
    16     3    15    1
    17     7    16    1
