@<TRIPOS>MOLECULE
O=c1cccc2[nH]ccn12
 16 17 0 0 0
SMALL
GASTEIGER
Energy = 0

@<TRIPOS>ATOM
      1 O           0.5017   -1.4479    0.0000 O.2     1  LIG1       -0.2673
      2 C           0.5017   -0.6229    0.0000 C.ar    1  LIG1        0.2568
      3 C           1.2161   -0.2104    0.0000 C.ar    1  LIG1        0.0034
      4 C           1.2161    0.6146    0.0000 C.ar    1  LIG1       -0.0532
      5 C           0.5017    1.0271    0.0000 C.ar    1  LIG1       -0.0205
      6 C          -0.2128    0.6146    0.0000 C.ar    1  LIG1        0.1180
      7 N          -0.9974    0.8696    0.0000 N.ar    1  LIG1       -0.3459
      8 C          -1.4823    0.2021    0.0000 C.ar    1  LIG1        0.0200
      9 C          -0.9974   -0.4653    0.0000 C.ar    1  LIG1        0.0305
     10 N          -0.2128   -0.2104    0.0000 N.ar    1  LIG1       -0.2683
     11 H           2.1700   -0.7611    0.0000 H       1  LIG1        0.0672
     12 H           2.1700    1.1653    0.0000 H       1  LIG1        0.0620
     13 H           0.5017    2.1286    0.0000 H       1  LIG1        0.0653
     14 H          -1.3319    1.8991    0.0000 H       1  LIG1        0.1668
     15 H          -2.5838    0.2021    0.0000 H       1  LIG1        0.0822
     16 H          -1.3378   -1.5129    0.0000 H       1  LIG1        0.0829
@<TRIPOS>BOND
     1     1     2    2
     2     2     3   ar
     3     3     4   ar
     4     4     5   ar
     5     5     6   ar
     6     6     7   ar
     7     7     8   ar
     8     8     9   ar
     9     9    10   ar
    10     2    10   ar
    11     6    10   ar
    12     3    11    1
    13     4    12    1
    14     5    13    1
    15     7    14    1
    16     8    15    1
    17     9    16    1
