@<TRIPOS>MOLECULE
O=c1[nH]ncc2ncoc12
 13 14 0 0 0
SMALL
GASTEIGER
Energy = 0

@<TRIPOS>ATOM
      1 O          -0.4920   -1.4432    0.0000 O.2     1  LIG1       -0.2623
      2 C          -0.4920   -0.6182    0.0000 C.ar    1  LIG1        0.3093
      3 N          -1.2064   -0.2057    0.0000 N.ar    1  LIG1       -0.2401
      4 N          -1.2064    0.6193    0.0000 N.ar    1  LIG1       -0.1770
      5 C          -0.4920    1.0318    0.0000 C.ar    1  LIG1        0.0770
      6 C           0.2225    0.6193    0.0000 C.ar    1  LIG1        0.1344
      7 C           0.2225   -0.2057    0.0000 C.ar    1  LIG1        0.2218
      8 O           1.0071   -0.4606    0.0000 O.2     1  LIG1       -0.4369
      9 C           1.4920    0.2068    0.0000 C.ar    1  LIG1        0.1834
     10 N           1.0071    0.8743    0.0000 N.ar    1  LIG1       -0.2143
     11 H          -2.1439   -0.7469    0.0000 H       1  LIG1        0.1922
     12 H          -0.4920    2.1333    0.0000 H       1  LIG1        0.0870
     13 H           2.5935    0.2068    0.0000 H       1  LIG1        0.1255
@<TRIPOS>BOND
     1     1     2    2
     2     2     3   ar
     3     3     4   ar
     4     4     5   ar
     5     5     6   ar
     6     6     7   ar
     7     2     7   ar
     8     7     8   ar
     9     8     9   ar
    10     9    10   ar
    11     6    10   ar
    12     3    11    1
    13     5    12    1
    14     9    13    1
