@<TRIPOS>MOLECULE
O=c1[nH][nH]c2ccc(=O)[nH]c12
 16 17 0 0 0
SMALL
GASTEIGER
Energy = 0

@<TRIPOS>ATOM
      1 O          -1.9218    0.5735    0.0000 O.2     1  LIG1       -0.2679
      2 C          -1.2073    0.1610    0.0000 C.ar    1  LIG1        0.2494
      3 N          -0.4928    0.5735    0.0000 N.ar    1  LIG1       -0.3166
      4 C           0.2216    0.1610    0.0000 C.ar    1  LIG1        0.1333
      5 C           0.2216   -0.6640    0.0000 C.ar    1  LIG1        0.0840
      6 N           1.0063   -0.9190    0.0000 N.ar    1  LIG1       -0.2951
      7 N           1.4912   -0.2515    0.0000 N.ar    1  LIG1       -0.2639
      8 C           1.0063    0.4159    0.0000 C.ar    1  LIG1        0.2886
      9 O           1.2612    1.2005    0.0000 O.2     1  LIG1       -0.2642
     10 C          -0.4928   -1.0765    0.0000 C.ar    1  LIG1       -0.0297
     11 C          -1.2073   -0.6640    0.0000 C.ar    1  LIG1        0.0048
     12 H          -0.4928    1.6560    0.0000 H       1  LIG1        0.1691
     13 H           1.3408   -1.9485    0.0000 H       1  LIG1        0.1869
     14 H           2.5737   -0.2515    0.0000 H       1  LIG1        0.1900
     15 H          -0.4928   -2.1780    0.0000 H       1  LIG1        0.0641
     16 H          -2.1612   -1.2148    0.0000 H       1  LIG1        0.0672
@<TRIPOS>BOND
     1     1     2    2
     2     2     3   ar
     3     3     4   ar
     4     4     5   ar
     5     5     6   ar
     6     6     7   ar
     7     7     8   ar
     8     4     8   ar
     9     8     9    2
    10     5    10   ar
    11    10    11   ar
    12     2    11   ar
    13     3    12    1
    14     6    13    1
    15     7    14    1
    16    10    15    1
    17    11    16    1
