@<TRIPOS>MOLECULE
c1cc2cn[nH]c2o1
 12 13 0 0 0
SMALL
GASTEIGER
Energy = 0

@<TRIPOS>ATOM
      1 N           0.7753   -0.6291    0.0000 N.ar    1  LIG1       -0.2461
      2 N           1.2602    0.0384    0.0000 N.ar    1  LIG1       -0.1787
      3 C           0.7753    0.7058    0.0000 C.ar    1  LIG1        0.0601
      4 C          -0.0093    0.4509    0.0000 C.ar    1  LIG1        0.0589
      5 C          -0.0093   -0.3741    0.0000 C.ar    1  LIG1        0.2229
      6 O          -0.7939   -0.6291    0.0000 O.2     1  LIG1       -0.4454
      7 C          -1.2789    0.0384    0.0000 C.ar    1  LIG1        0.0951
      8 C          -0.7939    0.7058    0.0000 C.ar    1  LIG1       -0.0130
      9 H           1.1098   -1.6586    0.0000 H       1  LIG1        0.1920
     10 H           1.1157    1.7534    0.0000 H       1  LIG1        0.0855
     11 H          -2.3804    0.0384    0.0000 H       1  LIG1        0.1030
     12 H          -1.1342    1.7534    0.0000 H       1  LIG1        0.0656
@<TRIPOS>BOND
     1     1     2   ar
     2     2     3   ar
     3     3     4   ar
     4     4     5   ar
     5     1     5   ar
     6     5     6   ar
     7     6     7   ar
     8     7     8   ar
     9     4     8   ar
    10     1     9    1
    11     3    10    1
    12     7    11    1
    13     8    12    1
