@<TRIPOS>MOLECULE
c1cnoc1
 8 8 0 0 0
SMALL
GASTEIGER
Energy = 0

@<TRIPOS>ATOM
      1 O          -0.1826   -0.6271    0.0000 O.2     1  LIG1       -0.3630
      2 C           0.6021   -0.3722    0.0000 C.ar    1  LIG1        0.1242
      3 C           0.6021    0.4528    0.0000 C.ar    1  LIG1       -0.0030
      4 C          -0.1826    0.7078    0.0000 C.ar    1  LIG1        0.0700
      5 N          -0.6675    0.0403    0.0000 N.ar    1  LIG1       -0.0868
      6 H           1.4932   -1.0197    0.0000 H       1  LIG1        0.1057
      7 H           1.4932    1.1002    0.0000 H       1  LIG1        0.0665
      8 H          -0.5230    1.7554    0.0000 H       1  LIG1        0.0864
@<TRIPOS>BOND
     1     1     2   ar
     2     2     3   ar
     3     3     4   ar
     4     4     5   ar
     5     1     5   ar
     6     2     6    1
     7     3     7    1
     8     4     8    1
