@<TRIPOS>MOLECULE
Cn1ccc2cncc2c1
 18 19 0 0 0
SMALL
GASTEIGER
Energy = 0

@<TRIPOS>ATOM
      1 C           1.7933   -0.7385    0.0000 C.3     1  LIG1        0.0113
      2 N           1.0788   -0.3260    0.0000 N.ar    1  LIG1       -0.3556
      3 C           1.0788    0.4990    0.0000 C.ar    1  LIG1        0.0049
      4 C           0.3643    0.9115    0.0000 C.ar    1  LIG1       -0.0363
      5 C          -0.3502    0.4990    0.0000 C.ar    1  LIG1        0.0044
      6 C          -1.1348    0.7539    0.0000 C.ar    1  LIG1        0.0354
      7 N          -1.6197    0.0865    0.0000 N.ar    1  LIG1       -0.2620
      8 C          -1.1348   -0.5810    0.0000 C.ar    1  LIG1        0.0367
      9 C          -0.3502   -0.3260    0.0000 C.ar    1  LIG1        0.0178
     10 C           0.3643   -0.7385    0.0000 C.ar    1  LIG1        0.0134
     11 H           2.6601    0.0019    0.0000 H       1  LIG1        0.0455
     12 H           1.8559   -1.4195   -0.9121 H       1  LIG1        0.0455
     13 H           1.8527   -1.3851    0.9370 H       1  LIG1        0.0455
     14 H           2.0327    1.0498    0.0000 H       1  LIG1        0.0809
     15 H           0.3643    2.0130    0.0000 H       1  LIG1        0.0639
     16 H          -1.4752    1.8015    0.0000 H       1  LIG1        0.0836
     17 H          -1.4752   -1.6286    0.0000 H       1  LIG1        0.0836
     18 H           0.3643   -1.8400    0.0000 H       1  LIG1        0.0815
@<TRIPOS>BOND
     1     1     2    1
     2     2     3   ar
     3     3     4   ar
     4     4     5   ar
     5     5     6   ar
     6     6     7   ar
     7     7     8   ar
     8     8     9   ar
     9     5     9   ar
    10     9    10   ar
    11     2    10   ar
    12     1    11    1
    13     1    12    1
    14     1    13    1
    15     3    14    1
    16     4    15    1
    17     6    16    1
    18     8    17    1
    19    10    18    1
