@<TRIPOS>MOLECULE
Cn1cnccc1=O
 14 14 0 0 0
SMALL
GASTEIGER
Energy = 0

@<TRIPOS>ATOM
      1 C           0.2060   -1.3248    0.0000 C.3     1  LIG1        0.0161
      2 N           0.2060   -0.4998    0.0000 N.ar    1  LIG1       -0.3024
      3 C           0.9205   -0.0873    0.0000 C.ar    1  LIG1        0.0983
      4 N           0.9205    0.7377    0.0000 N.ar    1  LIG1       -0.2452
      5 C           0.2060    1.1502    0.0000 C.ar    1  LIG1        0.0344
      6 C          -0.5085    0.7377    0.0000 C.ar    1  LIG1        0.0211
      7 C          -0.5085   -0.0873    0.0000 C.ar    1  LIG1        0.2536
      8 O          -1.2230   -0.4998    0.0000 O.2     1  LIG1       -0.2676
      9 H           1.2806   -1.7053    0.0000 H       1  LIG1        0.0457
     10 H          -0.3525   -1.7195   -0.9121 H       1  LIG1        0.0457
     11 H          -0.3242   -1.6995    0.9370 H       1  LIG1        0.0457
     12 H           1.8744   -0.6381    0.0000 H       1  LIG1        0.1029
     13 H           0.2060    2.2517    0.0000 H       1  LIG1        0.0832
     14 H          -1.4624    1.2885    0.0000 H       1  LIG1        0.0687
@<TRIPOS>BOND
     1     1     2    1
     2     2     3   ar
     3     3     4   ar
     4     4     5   ar
     5     5     6   ar
     6     6     7   ar
     7     2     7   ar
     8     7     8    2
     9     1     9    1
    10     1    10    1
    11     1    11    1
    12     3    12    1
    13     5    13    1
    14     6    14    1
