@<TRIPOS>MOLECULE
O=c1cc2ccccc2n[nH]1
 17 18 0 0 0
SMALL
GASTEIGER
Energy = 0

@<TRIPOS>ATOM
      1 O           1.8681   -0.7484    0.0000 O.2     1  LIG1       -0.2664
      2 C           1.1536   -0.3359    0.0000 C.ar    1  LIG1        0.2653
      3 N           1.1536    0.4891    0.0000 N.ar    1  LIG1       -0.2427
      4 N           0.4392    0.9016    0.0000 N.ar    1  LIG1       -0.1709
      5 C          -0.2753    0.4891    0.0000 C.ar    1  LIG1        0.0913
      6 C          -0.9898    0.9016    0.0000 C.ar    1  LIG1       -0.0340
      7 C          -1.7043    0.4891    0.0000 C.ar    1  LIG1       -0.0597
      8 C          -1.7043   -0.3359    0.0000 C.ar    1  LIG1       -0.0611
      9 C          -0.9898   -0.7484    0.0000 C.ar    1  LIG1       -0.0523
     10 C          -0.2753   -0.3359    0.0000 C.ar    1  LIG1        0.0072
     11 C           0.4392   -0.7484    0.0000 C.ar    1  LIG1        0.0134
     12 H           2.0911    1.0303    0.0000 H       1  LIG1        0.1921
     13 H          -0.9898    2.0031    0.0000 H       1  LIG1        0.0639
     14 H          -2.6582    1.0399    0.0000 H       1  LIG1        0.0618
     15 H          -2.6582   -0.8867    0.0000 H       1  LIG1        0.0618
     16 H          -0.9898   -1.8499    0.0000 H       1  LIG1        0.0624
     17 H           0.4392   -1.8499    0.0000 H       1  LIG1        0.0679
@<TRIPOS>BOND
     1     1     2    2
     2     2     3   ar
     3     3     4   ar
     4     4     5   ar
     5     5     6   ar
     6     6     7   ar
     7     7     8   ar
     8     8     9   ar
     9     9    10   ar
    10     5    10   ar
    11    10    11   ar
    12     2    11   ar
    13     3    12    1
    14     6    13    1
    15     7    14    1
    16     8    15    1
    17     9    16    1
    18    11    17    1
