@<TRIPOS>MOLECULE
Cn1c(=O)oc2cccnc12
 17 18 0 0 0
SMALL
GASTEIGER
Energy = 0

@<TRIPOS>ATOM
      1 C           0.8183   -1.3288    0.0000 C.3     1  LIG1        0.0197
      2 N           0.5634   -0.5442    0.0000 N.ar    1  LIG1       -0.2619
      3 C           1.0483    0.1232    0.0000 C.ar    1  LIG1        0.4222
      4 O           1.8733    0.1232    0.0000 O.2     1  LIG1       -0.2226
      5 O           0.5634    0.7907    0.0000 O.2     1  LIG1       -0.4058
      6 C          -0.2212    0.5357    0.0000 C.ar    1  LIG1        0.1759
      7 C          -0.9357    0.9482    0.0000 C.ar    1  LIG1       -0.0141
      8 C          -1.6502    0.5357    0.0000 C.ar    1  LIG1       -0.0400
      9 C          -1.6502   -0.2893    0.0000 C.ar    1  LIG1        0.0301
     10 N          -0.9357   -0.7018    0.0000 N.ar    1  LIG1       -0.2344
     11 C          -0.2212   -0.2893    0.0000 C.ar    1  LIG1        0.1815
     12 H           1.9579   -1.3587    0.0000 H       1  LIG1        0.0458
     13 H           0.4091   -1.8767   -0.9121 H       1  LIG1        0.0458
     14 H           0.4298   -1.8490    0.9370 H       1  LIG1        0.0458
     15 H          -0.9357    2.0497    0.0000 H       1  LIG1        0.0656
     16 H          -2.6041    1.0865    0.0000 H       1  LIG1        0.0634
     17 H          -2.6041   -0.8401    0.0000 H       1  LIG1        0.0830
@<TRIPOS>BOND
     1     1     2    1
     2     2     3   ar
     3     3     4    2
     4     3     5   ar
     5     5     6   ar
     6     6     7   ar
     7     7     8   ar
     8     8     9   ar
     9     9    10   ar
    10    10    11   ar
    11     2    11   ar
    12     6    11   ar
    13     1    12    1
    14     1    13    1
    15     1    14    1
    16     7    15    1
    17     8    16    1
    18     9    17    1
