@<TRIPOS>MOLECULE
Cn1c(=O)ccc2cnncc12
 19 20 0 0 0
SMALL
GASTEIGER
Energy = 0

@<TRIPOS>ATOM
      1 C           0.4640   -1.4251    0.0000 C.3     1  LIG1        0.0153
      2 N           0.4640   -0.6001    0.0000 N.ar    1  LIG1       -0.3097
      3 C           1.1785   -0.1876    0.0000 C.ar    1  LIG1        0.2515
      4 O           1.8930   -0.6001    0.0000 O.2     1  LIG1       -0.2677
      5 C           1.1785    0.6374    0.0000 C.ar    1  LIG1        0.0036
      6 C           0.4640    1.0499    0.0000 C.ar    1  LIG1       -0.0459
      7 C          -0.2505    0.6374    0.0000 C.ar    1  LIG1        0.0201
      8 C          -0.9649    1.0499    0.0000 C.ar    1  LIG1        0.0591
      9 N          -1.6794    0.6374    0.0000 N.ar    1  LIG1       -0.1570
     10 N          -1.6794   -0.1876    0.0000 N.ar    1  LIG1       -0.1556
     11 C          -0.9649   -0.6001    0.0000 C.ar    1  LIG1        0.0741
     12 C          -0.2505   -0.1876    0.0000 C.ar    1  LIG1        0.0731
     13 H           1.5386   -1.8056    0.0000 H       1  LIG1        0.0457
     14 H          -0.0945   -1.8198   -0.9121 H       1  LIG1        0.0457
     15 H          -0.0662   -1.7998    0.9370 H       1  LIG1        0.0457
     16 H           2.1324    1.1882    0.0000 H       1  LIG1        0.0672
     17 H           0.4640    2.1514    0.0000 H       1  LIG1        0.0626
     18 H          -0.9649    2.1514    0.0000 H       1  LIG1        0.0855
     19 H          -0.9649   -1.7016    0.0000 H       1  LIG1        0.0869
@<TRIPOS>BOND
     1     1     2    1
     2     2     3   ar
     3     3     4    2
     4     3     5   ar
     5     5     6   ar
     6     6     7   ar
     7     7     8   ar
     8     8     9   ar
     9     9    10   ar
    10    10    11   ar
    11    11    12   ar
    12     2    12   ar
    13     7    12   ar
    14     1    13    1
    15     1    14    1
    16     1    15    1
    17     5    16    1
    18     6    17    1
    19     8    18    1
    20    11    19    1
