@<TRIPOS>MOLECULE
Cn1cnc2nccn12
 15 16 0 0 0
SMALL
GASTEIGER
Energy = 0

@<TRIPOS>ATOM
      1 C           0.9185   -1.3062    0.0000 C.3     1  LIG1        0.0305
      2 N           0.6636   -0.5216    0.0000 N.ar    1  LIG1       -0.2695
      3 C           1.1485    0.1459    0.0000 C.ar    1  LIG1        0.1146
      4 N           0.6636    0.8133    0.0000 N.ar    1  LIG1       -0.1997
      5 C          -0.1211    0.5584    0.0000 C.ar    1  LIG1        0.2512
      6 N          -0.9057    0.8133    0.0000 N.ar    1  LIG1       -0.2176
      7 C          -1.3906    0.1459    0.0000 C.ar    1  LIG1        0.0496
      8 C          -0.9057   -0.5216    0.0000 C.ar    1  LIG1        0.0492
      9 N          -0.1211   -0.2666    0.0000 N.ar    1  LIG1       -0.2235
     10 H           2.0581   -1.3361    0.0000 H       1  LIG1        0.0473
     11 H           0.5093   -1.8541   -0.9121 H       1  LIG1        0.0473
     12 H           0.5300   -1.8264    0.9370 H       1  LIG1        0.0473
     13 H           2.2500    0.1459    0.0000 H       1  LIG1        0.1044
     14 H          -2.4921    0.1459    0.0000 H       1  LIG1        0.0846
     15 H          -1.2461   -1.5692    0.0000 H       1  LIG1        0.0846
@<TRIPOS>BOND
     1     1     2    1
     2     2     3   ar
     3     3     4   ar
     4     4     5   ar
     5     5     6   ar
     6     6     7   ar
     7     7     8   ar
     8     8     9   ar
     9     2     9   ar
    10     5     9   ar
    11     1    10    1
    12     1    11    1
    13     1    12    1
    14     3    13    1
    15     7    14    1
    16     8    15    1
