@<TRIPOS>MOLECULE
Cn1cc2c(=O)nc[nH]c2n1
 17 18 0 0 0
SMALL
GASTEIGER
Energy = 0

@<TRIPOS>ATOM
      1 C           2.1212   -0.1683    0.0000 C.3     1  LIG1        0.0303
      2 N           1.2962   -0.1683    0.0000 N.ar    1  LIG1       -0.2718
      3 C           0.8113    0.4992    0.0000 C.ar    1  LIG1        0.0397
      4 C           0.0267    0.2442    0.0000 C.ar    1  LIG1        0.1027
      5 C          -0.6878    0.6567    0.0000 C.ar    1  LIG1        0.2837
      6 O          -0.6878    1.4817    0.0000 O.2     1  LIG1       -0.2650
      7 N          -1.4023    0.2442    0.0000 N.ar    1  LIG1       -0.1989
      8 C          -1.4023   -0.5808    0.0000 C.ar    1  LIG1        0.0988
      9 N          -0.6878   -0.9933    0.0000 N.ar    1  LIG1       -0.3289
     10 C           0.0267   -0.5808    0.0000 C.ar    1  LIG1        0.1661
     11 N           0.8113   -0.8357    0.0000 N.ar    1  LIG1       -0.1530
     12 H           2.5017    0.9063    0.0000 H       1  LIG1        0.0473
     13 H           2.5159   -0.7268   -0.9121 H       1  LIG1        0.0473
     14 H           2.4959   -0.6985    0.9370 H       1  LIG1        0.0473
     15 H           1.1517    1.5468    0.0000 H       1  LIG1        0.0834
     16 H          -2.3562   -1.1316    0.0000 H       1  LIG1        0.1028
     17 H          -0.6878   -2.0758    0.0000 H       1  LIG1        0.1682
@<TRIPOS>BOND
     1     1     2    1
     2     2     3   ar
     3     3     4   ar
     4     4     5   ar
     5     5     6    2
     6     5     7   ar
     7     7     8   ar
     8     8     9   ar
     9     9    10   ar
    10     4    10   ar
    11    10    11   ar
    12     2    11   ar
    13     1    12    1
    14     1    13    1
    15     1    14    1
    16     3    15    1
    17     8    16    1
    18     9    17    1
