@<TRIPOS>MOLECULE
O=c1cc2nccnc2c[nH]1
 16 17 0 0 0
SMALL
GASTEIGER
Energy = 0

@<TRIPOS>ATOM
      1 O           1.9021   -0.7379    0.0000 O.2     1  LIG1       -0.2678
      2 C           1.1876   -0.3254    0.0000 C.ar    1  LIG1        0.2509
      3 N           1.1876    0.4996    0.0000 N.ar    1  LIG1       -0.3269
      4 C           0.4731    0.9121    0.0000 C.ar    1  LIG1        0.0324
      5 C          -0.2413    0.4996    0.0000 C.ar    1  LIG1        0.1053
      6 N          -0.9558    0.9121    0.0000 N.ar    1  LIG1       -0.2505
      7 C          -1.6703    0.4996    0.0000 C.ar    1  LIG1        0.0464
      8 C          -1.6703   -0.3254    0.0000 C.ar    1  LIG1        0.0464
      9 N          -0.9558   -0.7379    0.0000 N.ar    1  LIG1       -0.2517
     10 C          -0.2413   -0.3254    0.0000 C.ar    1  LIG1        0.0957
     11 C           0.4731   -0.7379    0.0000 C.ar    1  LIG1        0.0302
     12 H           2.1251    1.0409    0.0000 H       1  LIG1        0.1684
     13 H           0.4731    2.0136    0.0000 H       1  LIG1        0.0830
     14 H          -2.6242    1.0504    0.0000 H       1  LIG1        0.0845
     15 H          -2.6242   -0.8762    0.0000 H       1  LIG1        0.0845
     16 H           0.4731   -1.8394    0.0000 H       1  LIG1        0.0694
@<TRIPOS>BOND
     1     1     2    2
     2     2     3   ar
     3     3     4   ar
     4     4     5   ar
     5     5     6   ar
     6     6     7   ar
     7     7     8   ar
     8     8     9   ar
     9     9    10   ar
    10     5    10   ar
    11    10    11   ar
    12     2    11   ar
    13     3    12    1
    14     4    13    1
    15     7    14    1
    16     8    15    1
    17    11    16    1
