@<TRIPOS>MOLECULE
O=c1cc[nH]cn1
 11 11 0 0 0
SMALL
GASTEIGER
Energy = 0

@<TRIPOS>ATOM
      1 O           0.0155   -1.3722    0.0000 O.2     1  LIG1       -0.2658
      2 C           0.0155   -0.5472    0.0000 C.ar    1  LIG1        0.2729
      3 C           0.7300   -0.1347    0.0000 C.ar    1  LIG1        0.0206
      4 C           0.7300    0.6903    0.0000 C.ar    1  LIG1        0.0081
      5 N           0.0155    1.1028    0.0000 N.ar    1  LIG1       -0.3520
      6 C          -0.6990    0.6903    0.0000 C.ar    1  LIG1        0.0972
      7 N          -0.6990   -0.1347    0.0000 N.ar    1  LIG1       -0.1996
      8 H           1.6839   -0.6855    0.0000 H       1  LIG1        0.0687
      9 H           1.6839    1.2411    0.0000 H       1  LIG1        0.0809
     10 H           0.0155    2.1853    0.0000 H       1  LIG1        0.1662
     11 H          -1.6529    1.2411    0.0000 H       1  LIG1        0.1028
@<TRIPOS>BOND
     1     1     2    2
     2     2     3   ar
     3     3     4   ar
     4     4     5   ar
     5     5     6   ar
     6     6     7   ar
     7     2     7   ar
     8     3     8    1
     9     4     9    1
    10     5    10    1
    11     6    11    1
