@<TRIPOS>MOLECULE
Cn1cnc(=O)c2cocc12
 17 18 0 0 0
SMALL
GASTEIGER
Energy = 0

@<TRIPOS>ATOM
      1 C           0.4603   -1.6900    0.0000 C.3     1  LIG1        0.0133
      2 N           0.4603   -0.8650    0.0000 N.ar    1  LIG1       -0.3317
      3 C           1.1748   -0.4525    0.0000 C.ar    1  LIG1        0.1001
      4 N           1.1748    0.3725    0.0000 N.ar    1  LIG1       -0.1988
      5 C           0.4603    0.7850    0.0000 C.ar    1  LIG1        0.2837
      6 O           0.4603    1.6100    0.0000 O.2     1  LIG1       -0.2650
      7 C          -0.2541    0.3725    0.0000 C.ar    1  LIG1        0.1024
      8 C          -1.0388    0.6275    0.0000 C.ar    1  LIG1        0.1062
      9 O          -1.5237   -0.0400    0.0000 O.2     1  LIG1       -0.4681
     10 C          -1.0388   -0.7074    0.0000 C.ar    1  LIG1        0.1159
     11 C          -0.2541   -0.4525    0.0000 C.ar    1  LIG1        0.0934
     12 H           1.5349   -2.0705    0.0000 H       1  LIG1        0.0456
     13 H          -0.0982   -2.0847   -0.9121 H       1  LIG1        0.0456
     14 H          -0.0699   -2.0647    0.9370 H       1  LIG1        0.0456
     15 H           2.1287   -1.0033    0.0000 H       1  LIG1        0.1030
     16 H          -1.3792    1.6751    0.0000 H       1  LIG1        0.1038
     17 H          -1.3792   -1.7550    0.0000 H       1  LIG1        0.1051
@<TRIPOS>BOND
     1     1     2    1
     2     2     3   ar
     3     3     4   ar
     4     4     5   ar
     5     5     6    2
     6     5     7   ar
     7     7     8   ar
     8     8     9   ar
     9     9    10   ar
    10    10    11   ar
    11     2    11   ar
    12     7    11   ar
    13     1    12    1
    14     1    13    1
    15     1    14    1
    16     3    15    1
    17     8    16    1
    18    10    17    1
