@<TRIPOS>MOLECULE
O=c1ccc2occc2[nH]1
 15 16 0 0 0
SMALL
GASTEIGER
Energy = 0

@<TRIPOS>ATOM
      1 O          -1.7592    0.7313    0.0000 O.2     1  LIG1       -0.2679
      2 C          -1.0447    0.3188    0.0000 C.ar    1  LIG1        0.2493
      3 N          -0.3302    0.7313    0.0000 N.ar    1  LIG1       -0.3196
      4 C           0.3842    0.3188    0.0000 C.ar    1  LIG1        0.0876
      5 C           0.3842   -0.5062    0.0000 C.ar    1  LIG1        0.1511
      6 O           1.1689   -0.7611    0.0000 O.2     1  LIG1       -0.4614
      7 C           1.6538   -0.0937    0.0000 C.ar    1  LIG1        0.0946
      8 C           1.1689    0.5738    0.0000 C.ar    1  LIG1        0.0002
      9 C          -0.3302   -0.9187    0.0000 C.ar    1  LIG1       -0.0122
     10 C          -1.0447   -0.5062    0.0000 C.ar    1  LIG1        0.0063
     11 H          -0.3302    1.8138    0.0000 H       1  LIG1        0.1690
     12 H           2.7553   -0.0937    0.0000 H       1  LIG1        0.1030
     13 H           1.5093    1.6214    0.0000 H       1  LIG1        0.0670
     14 H          -0.3302   -2.0202    0.0000 H       1  LIG1        0.0657
     15 H          -1.9986   -1.0570    0.0000 H       1  LIG1        0.0673
@<TRIPOS>BOND
     1     1     2    2
     2     2     3   ar
     3     3     4   ar
     4     4     5   ar
     5     5     6   ar
     6     6     7   ar
     7     7     8   ar
     8     4     8   ar
     9     5     9   ar
    10     9    10   ar
    11     2    10   ar
    12     3    11    1
    13     7    12    1
    14     8    13    1
    15     9    14    1
    16    10    15    1
