@<TRIPOS>MOLECULE
O=c1nncn[nH]1
 9 9 0 0 0
SMALL
GASTEIGER
Energy = 0

@<TRIPOS>ATOM
      1 O          -0.0000   -1.3751    0.0000 O.2     1  LIG1       -0.2416
      2 C          -0.0000   -0.5501    0.0000 C.ar    1  LIG1        0.3803
      3 N           0.7145   -0.1376    0.0000 N.ar    1  LIG1       -0.2242
      4 N           0.7145    0.6874    0.0000 N.ar    1  LIG1       -0.1564
      5 C           0.0000    1.0999    0.0000 C.ar    1  LIG1        0.1585
      6 N          -0.7145    0.6874    0.0000 N.ar    1  LIG1       -0.1311
      7 N          -0.7145   -0.1376    0.0000 N.ar    1  LIG1       -0.0877
      8 H           1.6520   -0.6789    0.0000 H       1  LIG1        0.1938
      9 H           0.0000    2.2014    0.0000 H       1  LIG1        0.1084
@<TRIPOS>BOND
     1     1     2    2
     2     2     3   ar
     3     3     4   ar
     4     4     5   ar
     5     5     6   ar
     6     6     7   ar
     7     2     7   ar
     8     3     8    1
     9     5     9    1
