@<TRIPOS>MOLECULE
O=c1cn[nH][nH]1
 9 9 0 0 0
SMALL
GASTEIGER
Energy = 0

@<TRIPOS>ATOM
      1 O          -1.2514    0.0162    0.0000 O.2     1  LIG1       -0.2647
      2 C          -0.4264    0.0162    0.0000 C.ar    1  LIG1        0.2841
      3 N           0.0585   -0.6512    0.0000 N.ar    1  LIG1       -0.2486
      4 N           0.8432   -0.3963    0.0000 N.ar    1  LIG1       -0.2167
      5 N           0.8432    0.4287    0.0000 N.ar    1  LIG1       -0.1610
      6 C           0.0585    0.6837    0.0000 C.ar    1  LIG1        0.1148
      7 H          -0.2760   -1.6807    0.0000 H       1  LIG1        0.1915
      8 H           1.7189   -1.0326    0.0000 H       1  LIG1        0.2104
      9 H          -0.2819    1.7313    0.0000 H       1  LIG1        0.0904
@<TRIPOS>BOND
     1     1     2    2
     2     2     3   ar
     3     3     4   ar
     4     4     5   ar
     5     5     6   ar
     6     2     6   ar
     7     3     7    1
     8     4     8    1
     9     6     9    1
