@<TRIPOS>MOLECULE
Cn1cnn2c(=O)cccc12
 18 19 0 0 0
SMALL
GASTEIGER
Energy = 0

@<TRIPOS>ATOM
      1 C           1.1325   -1.5209    0.0000 C.3     1  LIG1        0.0146
      2 N           0.8776   -0.7363    0.0000 N.ar    1  LIG1       -0.3183
      3 C           1.3625   -0.0688    0.0000 C.ar    1  LIG1        0.1183
      4 N           0.8776    0.5986    0.0000 N.ar    1  LIG1       -0.1522
      5 N           0.0929    0.3437    0.0000 N.ar    1  LIG1       -0.1787
      6 C          -0.6215    0.7562    0.0000 C.ar    1  LIG1        0.2732
      7 O          -0.6215    1.5812    0.0000 O.2     1  LIG1       -0.2658
      8 C          -1.3360    0.3437    0.0000 C.ar    1  LIG1        0.0049
      9 C          -1.3360   -0.4813    0.0000 C.ar    1  LIG1       -0.0531
     10 C          -0.6215   -0.8938    0.0000 C.ar    1  LIG1       -0.0188
     11 C           0.0929   -0.4813    0.0000 C.ar    1  LIG1        0.1397
     12 H           2.2721   -1.5508    0.0000 H       1  LIG1        0.0457
     13 H           0.7233   -2.0688   -0.9121 H       1  LIG1        0.0457
     14 H           0.7440   -2.0411    0.9370 H       1  LIG1        0.0457
     15 H           2.4640   -0.0688    0.0000 H       1  LIG1        0.1047
     16 H          -2.2899    0.8945    0.0000 H       1  LIG1        0.0672
     17 H          -2.2899   -1.0321    0.0000 H       1  LIG1        0.0620
     18 H          -0.6215   -1.9953    0.0000 H       1  LIG1        0.0654
@<TRIPOS>BOND
     1     1     2    1
     2     2     3   ar
     3     3     4   ar
     4     4     5   ar
     5     5     6   ar
     6     6     7    2
     7     6     8   ar
     8     8     9   ar
     9     9    10   ar
    10    10    11   ar
    11     2    11   ar
    12     5    11   ar
    13     1    12    1
    14     1    13    1
    15     1    14    1
    16     3    15    1
    17     8    16    1
    18     9    17    1
    19    10    18    1
