@<TRIPOS>MOLECULE
c1n[nH]c2nocc12
 11 12 0 0 0
SMALL
GASTEIGER
Energy = 0

@<TRIPOS>ATOM
      1 N           0.8085   -0.6423    0.0000 N.ar    1  LIG1       -0.2576
      2 N           1.2934    0.0251    0.0000 N.ar    1  LIG1       -0.1797
      3 C           0.8085    0.6926    0.0000 C.ar    1  LIG1        0.0616
      4 C           0.0239    0.4376    0.0000 C.ar    1  LIG1        0.0789
      5 C          -0.7608    0.6926    0.0000 C.ar    1  LIG1        0.1350
      6 O          -1.2457    0.0251    0.0000 O.2     1  LIG1       -0.3602
      7 N          -0.7608   -0.6423    0.0000 N.ar    1  LIG1       -0.0587
      8 C           0.0239   -0.3874    0.0000 C.ar    1  LIG1        0.1981
      9 H           1.1430   -1.6718    0.0000 H       1  LIG1        0.1906
     10 H           1.1489    1.7402    0.0000 H       1  LIG1        0.0855
     11 H          -1.1012    1.7402    0.0000 H       1  LIG1        0.1065
@<TRIPOS>BOND
     1     1     2   ar
     2     2     3   ar
     3     3     4   ar
     4     4     5   ar
     5     5     6   ar
     6     6     7   ar
     7     7     8   ar
     8     1     8   ar
     9     4     8   ar
    10     1     9    1
    11     3    10    1
    12     5    11    1
