@<TRIPOS>MOLECULE
c1cnc2nnncc2n1
 13 14 0 0 0
SMALL
GASTEIGER
Energy = 0

@<TRIPOS>ATOM
      1 C           1.4618   -0.4252    0.0000 C.ar    1  LIG1        0.0465
      2 C           1.4618    0.3998    0.0000 C.ar    1  LIG1        0.0481
      3 N           0.7474    0.8123    0.0000 N.ar    1  LIG1       -0.2314
      4 C           0.0329    0.3998    0.0000 C.ar    1  LIG1        0.2035
      5 N          -0.6816    0.8123    0.0000 N.ar    1  LIG1       -0.1076
      6 N          -1.3961    0.3998    0.0000 N.ar    1  LIG1       -0.0412
      7 N          -1.3961   -0.4252    0.0000 N.ar    1  LIG1       -0.1355
      8 C          -0.6816   -0.8377    0.0000 C.ar    1  LIG1        0.0806
      9 C           0.0329   -0.4252    0.0000 C.ar    1  LIG1        0.1294
     10 N           0.7474   -0.8377    0.0000 N.ar    1  LIG1       -0.2487
     11 H           2.4157   -0.9759    0.0000 H       1  LIG1        0.0845
     12 H           2.4157    0.9505    0.0000 H       1  LIG1        0.0846
     13 H          -0.6816   -1.9392    0.0000 H       1  LIG1        0.0871
@<TRIPOS>BOND
     1     1     2   ar
     2     2     3   ar
     3     3     4   ar
     4     4     5   ar
     5     5     6   ar
     6     6     7   ar
     7     7     8   ar
     8     8     9   ar
     9     4     9   ar
    10     9    10   ar
    11     1    10   ar
    12     1    11    1
    13     2    12    1
    14     8    13    1
