@<TRIPOS>MOLECULE
O=c1[nH]ncc2conc12
 13 14 0 0 0
SMALL
GASTEIGER
Energy = 0

@<TRIPOS>ATOM
      1 O           0.5064   -1.4432    0.0000 O.2     1  LIG1       -0.2640
      2 C           0.5064   -0.6182    0.0000 C.ar    1  LIG1        0.2941
      3 N           1.2209   -0.2057    0.0000 N.ar    1  LIG1       -0.2414
      4 N           1.2209    0.6193    0.0000 N.ar    1  LIG1       -0.1786
      5 C           0.5064    1.0318    0.0000 C.ar    1  LIG1        0.0603
      6 C          -0.2081    0.6193    0.0000 C.ar    1  LIG1        0.0660
      7 C          -0.9927    0.8743    0.0000 C.ar    1  LIG1        0.1336
      8 O          -1.4776    0.2068    0.0000 O.2     1  LIG1       -0.3616
      9 N          -0.9927   -0.4606    0.0000 N.ar    1  LIG1       -0.0728
     10 C          -0.2081   -0.2057    0.0000 C.ar    1  LIG1        0.1801
     11 H           2.1584   -0.7470    0.0000 H       1  LIG1        0.1922
     12 H           0.5064    2.1333    0.0000 H       1  LIG1        0.0855
     13 H          -1.3331    1.9219    0.0000 H       1  LIG1        0.1064
@<TRIPOS>BOND
     1     1     2    2
     2     2     3   ar
     3     3     4   ar
     4     4     5   ar
     5     5     6   ar
     6     6     7   ar
     7     7     8   ar
     8     8     9   ar
     9     9    10   ar
    10     2    10   ar
    11     6    10   ar
    12     3    11    1
    13     5    12    1
    14     7    13    1
