@<TRIPOS>MOLECULE
O=c1[nH]ncc2nccn12
 14 15 0 0 0
SMALL
GASTEIGER
Energy = 0

@<TRIPOS>ATOM
      1 O           0.4649   -1.4540    0.0000 O.2     1  LIG1       -0.2446
      2 C           0.4649   -0.6290    0.0000 C.ar    1  LIG1        0.3484
      3 N           1.1794   -0.2165    0.0000 N.ar    1  LIG1       -0.2278
      4 N           1.1794    0.6085    0.0000 N.ar    1  LIG1       -0.1745
      5 C           0.4649    1.0210    0.0000 C.ar    1  LIG1        0.0907
      6 C          -0.2496    0.6085    0.0000 C.ar    1  LIG1        0.1614
      7 N          -1.0342    0.8635    0.0000 N.ar    1  LIG1       -0.2344
      8 C          -1.5191    0.1960    0.0000 C.ar    1  LIG1        0.0466
      9 C          -1.0342   -0.4714    0.0000 C.ar    1  LIG1        0.0342
     10 N          -0.2496   -0.2165    0.0000 N.ar    1  LIG1       -0.2496
     11 H           2.1169   -0.7578    0.0000 H       1  LIG1        0.1936
     12 H           0.4649    2.1225    0.0000 H       1  LIG1        0.0885
     13 H          -2.6206    0.1960    0.0000 H       1  LIG1        0.0845
     14 H          -1.3746   -1.5190    0.0000 H       1  LIG1        0.0830
@<TRIPOS>BOND
     1     1     2    2
     2     2     3   ar
     3     3     4   ar
     4     4     5   ar
     5     5     6   ar
     6     6     7   ar
     7     7     8   ar
     8     8     9   ar
     9     9    10   ar
    10     2    10   ar
    11     6    10   ar
    12     3    11    1
    13     5    12    1
    14     8    13    1
    15     9    14    1
