@<TRIPOS>MOLECULE
Cn1c(=O)nc2ccncn12
 17 18 0 0 0
SMALL
GASTEIGER
Energy = 0

@<TRIPOS>ATOM
      1 C           0.8391    1.3196    0.0000 C.3     1  LIG1        0.0340
      2 N           0.5842    0.5350    0.0000 N.ar    1  LIG1       -0.2295
      3 N          -0.2005    0.2800    0.0000 N.ar    1  LIG1       -0.2197
      4 C          -0.9149    0.6925    0.0000 C.ar    1  LIG1        0.1179
      5 N          -1.6294    0.2800    0.0000 N.ar    1  LIG1       -0.2436
      6 C          -1.6294   -0.5450    0.0000 C.ar    1  LIG1        0.0328
      7 C          -0.9149   -0.9575    0.0000 C.ar    1  LIG1        0.0008
      8 C          -0.2005   -0.5450    0.0000 C.ar    1  LIG1        0.1608
      9 N           0.5842   -0.7999    0.0000 N.ar    1  LIG1       -0.1726
     10 C           1.0691   -0.1325    0.0000 C.ar    1  LIG1        0.3651
     11 O           1.8941   -0.1325    0.0000 O.2     1  LIG1       -0.2430
     12 H          -0.0653    2.0136    0.0000 H       1  LIG1        0.0474
     13 H           1.4922    1.5224   -0.9121 H       1  LIG1        0.0474
     14 H           1.4592    1.5122    0.9370 H       1  LIG1        0.0474
     15 H          -0.9149    1.7940    0.0000 H       1  LIG1        0.1047
     16 H          -2.5833   -1.0958    0.0000 H       1  LIG1        0.0831
     17 H          -0.9149   -2.0590    0.0000 H       1  LIG1        0.0670
@<TRIPOS>BOND
     1     1     2    1
     2     2     3   ar
     3     3     4   ar
     4     4     5   ar
     5     5     6   ar
     6     6     7   ar
     7     7     8   ar
     8     3     8   ar
     9     8     9   ar
    10     9    10   ar
    11     2    10   ar
    12    10    11    2
    13     1    12    1
    14     1    13    1
    15     1    14    1
    16     4    15    1
    17     6    16    1
    18     7    17    1
