@<TRIPOS>MOLECULE
c1nc2cccnc2[nH]1
 14 15 0 0 0
SMALL
GASTEIGER
Energy = 0

@<TRIPOS>ATOM
      1 N           0.9221   -0.6530    0.0000 N.ar    1  LIG1       -0.3293
      2 C           1.4070    0.0144    0.0000 C.ar    1  LIG1        0.0956
      3 N           0.9221    0.6819    0.0000 N.ar    1  LIG1       -0.2343
      4 C           0.1375    0.4269    0.0000 C.ar    1  LIG1        0.1077
      5 C          -0.5770    0.8394    0.0000 C.ar    1  LIG1       -0.0313
      6 C          -1.2914    0.4269    0.0000 C.ar    1  LIG1       -0.0414
      7 C          -1.2914   -0.3981    0.0000 C.ar    1  LIG1        0.0300
      8 N          -0.5770   -0.8106    0.0000 N.ar    1  LIG1       -0.2359
      9 C           0.1375   -0.3981    0.0000 C.ar    1  LIG1        0.1576
     10 H           1.2566   -1.6825    0.0000 H       1  LIG1        0.1682
     11 H           2.5085    0.0144    0.0000 H       1  LIG1        0.1027
     12 H          -0.5770    1.9409    0.0000 H       1  LIG1        0.0640
     13 H          -2.2453    0.9776    0.0000 H       1  LIG1        0.0633
     14 H          -2.2453   -0.9488    0.0000 H       1  LIG1        0.0830
@<TRIPOS>BOND
     1     1     2   ar
     2     2     3   ar
     3     3     4   ar
     4     4     5   ar
     5     5     6   ar
     6     6     7   ar
     7     7     8   ar
     8     8     9   ar
     9     1     9   ar
    10     4     9   ar
    11     1    10    1
    12     2    11    1
    13     5    12    1
    14     6    13    1
    15     7    14    1
