@<TRIPOS>MOLECULE
Cn1ccn2cnnc2c1=O
 17 18 0 0 0
SMALL
GASTEIGER
Energy = 0

@<TRIPOS>ATOM
      1 C           1.7734   -0.5638    0.0000 C.3     1  LIG1        0.0149
      2 N           1.0589   -0.1513    0.0000 N.ar    1  LIG1       -0.3138
      3 C           1.0589    0.6737    0.0000 C.ar    1  LIG1        0.0243
      4 C           0.3444    1.0862    0.0000 C.ar    1  LIG1        0.0290
      5 N          -0.3700    0.6737    0.0000 N.ar    1  LIG1       -0.2832
      6 C          -1.1547    0.9287    0.0000 C.ar    1  LIG1        0.1243
      7 N          -1.6396    0.2612    0.0000 N.ar    1  LIG1       -0.1370
      8 N          -1.1547   -0.4062    0.0000 N.ar    1  LIG1       -0.1240
      9 C          -0.3700   -0.1513    0.0000 C.ar    1  LIG1        0.2260
     10 C           0.3444   -0.5638    0.0000 C.ar    1  LIG1        0.2959
     11 O           0.3444   -1.3888    0.0000 O.2     1  LIG1       -0.2636
     12 H           2.6402    0.1766    0.0000 H       1  LIG1        0.0457
     13 H           1.8360   -1.2448   -0.9121 H       1  LIG1        0.0457
     14 H           1.8328   -1.2104    0.9370 H       1  LIG1        0.0457
     15 H           2.0128    1.2245    0.0000 H       1  LIG1        0.0825
     16 H           0.3444    2.1877    0.0000 H       1  LIG1        0.0828
     17 H          -1.4951    1.9763    0.0000 H       1  LIG1        0.1052
@<TRIPOS>BOND
     1     1     2    1
     2     2     3   ar
     3     3     4   ar
     4     4     5   ar
     5     5     6   ar
     6     6     7   ar
     7     7     8   ar
     8     8     9   ar
     9     5     9   ar
    10     9    10   ar
    11     2    10   ar
    12    10    11    2
    13     1    12    1
    14     1    13    1
    15     1    14    1
    16     3    15    1
    17     4    16    1
    18     6    17    1
