@<TRIPOS>MOLECULE
c1noc2cnccc12
 13 14 0 0 0
SMALL
GASTEIGER
Energy = 0

@<TRIPOS>ATOM
      1 O           0.9102   -0.6374    0.0000 O.2     1  LIG1       -0.3531
      2 N           1.3952    0.0300    0.0000 N.ar    1  LIG1       -0.0854
      3 C           0.9102    0.6975    0.0000 C.ar    1  LIG1        0.0779
      4 C           0.1256    0.4425    0.0000 C.ar    1  LIG1        0.0440
      5 C          -0.5889    0.8550    0.0000 C.ar    1  LIG1       -0.0313
      6 C          -1.3033    0.4425    0.0000 C.ar    1  LIG1        0.0284
      7 N          -1.3033   -0.3825    0.0000 N.ar    1  LIG1       -0.2595
      8 C          -0.5889   -0.7950    0.0000 C.ar    1  LIG1        0.0730
      9 C           0.1256   -0.3825    0.0000 C.ar    1  LIG1        0.1852
     10 H           1.2505    1.7451    0.0000 H       1  LIG1        0.0870
     11 H          -0.5889    1.9565    0.0000 H       1  LIG1        0.0640
     12 H          -2.2572    0.9932    0.0000 H       1  LIG1        0.0830
     13 H          -0.5889   -1.8965    0.0000 H       1  LIG1        0.0868
@<TRIPOS>BOND
     1     1     2   ar
     2     2     3   ar
     3     3     4   ar
     4     4     5   ar
     5     5     6   ar
     6     6     7   ar
     7     7     8   ar
     8     8     9   ar
     9     1     9   ar
    10     4     9   ar
    11     3    10    1
    12     5    11    1
    13     6    12    1
    14     8    13    1
