@<TRIPOS>MOLECULE
Cn1ncn2ccnc12
 15 16 0 0 0
SMALL
GASTEIGER
Energy = 0

@<TRIPOS>ATOM
      1 C           0.9102   -1.2860    0.0000 C.3     1  LIG1        0.0339
      2 N           0.6552   -0.5013    0.0000 N.ar    1  LIG1       -0.2339
      3 N           1.1402    0.1661    0.0000 N.ar    1  LIG1       -0.1585
      4 C           0.6552    0.8335    0.0000 C.ar    1  LIG1        0.1233
      5 N          -0.1294    0.5786    0.0000 N.ar    1  LIG1       -0.2733
      6 C          -0.9140    0.8335    0.0000 C.ar    1  LIG1        0.0322
      7 C          -1.3989    0.1661    0.0000 C.ar    1  LIG1        0.0480
      8 N          -0.9140   -0.5013    0.0000 N.ar    1  LIG1       -0.2190
      9 C          -0.1294   -0.2464    0.0000 C.ar    1  LIG1        0.2326
     10 H           2.0498   -1.3158    0.0000 H       1  LIG1        0.0474
     11 H           0.5011   -1.8339   -0.9121 H       1  LIG1        0.0474
     12 H           0.5217   -1.8063    0.9370 H       1  LIG1        0.0474
     13 H           0.9955    1.8811    0.0000 H       1  LIG1        0.1051
     14 H          -1.2544    1.8811    0.0000 H       1  LIG1        0.0829
     15 H          -2.5004    0.1661    0.0000 H       1  LIG1        0.0846
@<TRIPOS>BOND
     1     1     2    1
     2     2     3   ar
     3     3     4   ar
     4     4     5   ar
     5     5     6   ar
     6     6     7   ar
     7     7     8   ar
     8     8     9   ar
     9     2     9   ar
    10     5     9   ar
    11     1    10    1
    12     1    11    1
    13     1    12    1
    14     4    13    1
    15     6    14    1
    16     7    15    1
