@<TRIPOS>MOLECULE
O=c1cc2occc2c[nH]1
 15 16 0 0 0
SMALL
GASTEIGER
Energy = 0

@<TRIPOS>ATOM
      1 O           1.7482   -0.7094    0.0000 O.2     1  LIG1       -0.2678
      2 C           1.0337   -0.2969    0.0000 C.ar    1  LIG1        0.2523
      3 N           1.0337    0.5281    0.0000 N.ar    1  LIG1       -0.3283
      4 C           0.3193    0.9406    0.0000 C.ar    1  LIG1        0.0157
      5 C          -0.3952    0.5281    0.0000 C.ar    1  LIG1        0.0363
      6 C          -1.1798    0.7830    0.0000 C.ar    1  LIG1       -0.0147
      7 C          -1.6647    0.1156    0.0000 C.ar    1  LIG1        0.0932
      8 O          -1.1798   -0.5518    0.0000 O.2     1  LIG1       -0.4627
      9 C          -0.3952   -0.2969    0.0000 C.ar    1  LIG1        0.1413
     10 C           0.3193   -0.7094    0.0000 C.ar    1  LIG1        0.0456
     11 H           1.9712    1.0693    0.0000 H       1  LIG1        0.1683
     12 H           0.3193    2.0421    0.0000 H       1  LIG1        0.0815
     13 H          -1.5202    1.8306    0.0000 H       1  LIG1        0.0655
     14 H          -2.7662    0.1156    0.0000 H       1  LIG1        0.1030
     15 H           0.3193   -1.8109    0.0000 H       1  LIG1        0.0709
@<TRIPOS>BOND
     1     1     2    2
     2     2     3   ar
     3     3     4   ar
     4     4     5   ar
     5     5     6   ar
     6     6     7   ar
     7     7     8   ar
     8     8     9   ar
     9     5     9   ar
    10     9    10   ar
    11     2    10   ar
    12     3    11    1
    13     4    12    1
    14     6    13    1
    15     7    14    1
    16    10    15    1
