@<TRIPOS>MOLECULE
c1cnc2cnnnc2c1
 14 15 0 0 0
SMALL
GASTEIGER
Energy = 0

@<TRIPOS>ATOM
      1 C           1.4735   -0.4125    0.0000 C.ar    1  LIG1       -0.0415
      2 C           1.4735    0.4125    0.0000 C.ar    1  LIG1        0.0284
      3 N           0.7590    0.8250    0.0000 N.ar    1  LIG1       -0.2518
      4 C           0.0445    0.4125    0.0000 C.ar    1  LIG1        0.1107
      5 C          -0.6699    0.8250    0.0000 C.ar    1  LIG1        0.0791
      6 N          -1.3844    0.4125    0.0000 N.ar    1  LIG1       -0.1356
      7 N          -1.3844   -0.4125    0.0000 N.ar    1  LIG1       -0.0427
      8 N          -0.6699   -0.8250    0.0000 N.ar    1  LIG1       -0.1278
      9 C           0.0445   -0.4125    0.0000 C.ar    1  LIG1        0.1147
     10 C           0.7590   -0.8250    0.0000 C.ar    1  LIG1       -0.0309
     11 H           2.4274   -0.9633    0.0000 H       1  LIG1        0.0633
     12 H           2.4274    0.9633    0.0000 H       1  LIG1        0.0830
     13 H          -0.6699    1.9265    0.0000 H       1  LIG1        0.0871
     14 H           0.7590   -1.9265    0.0000 H       1  LIG1        0.0640
@<TRIPOS>BOND
     1     1     2   ar
     2     2     3   ar
     3     3     4   ar
     4     4     5   ar
     5     5     6   ar
     6     6     7   ar
     7     7     8   ar
     8     8     9   ar
     9     4     9   ar
    10     9    10   ar
    11     1    10   ar
    12     1    11    1
    13     2    12    1
    14     5    13    1
    15    10    14    1
