@<TRIPOS>MOLECULE
O=c1nc[nH]c2nocc12
 13 14 0 0 0
SMALL
GASTEIGER
Energy = 0

@<TRIPOS>ATOM
      1 O           0.5170   -1.4692    0.0000 O.2     1  LIG1       -0.2650
      2 C           0.5170   -0.6442    0.0000 C.ar    1  LIG1        0.2854
      3 N           1.2315   -0.2317    0.0000 N.ar    1  LIG1       -0.1989
      4 C           1.2315    0.5933    0.0000 C.ar    1  LIG1        0.0988
      5 N           0.5170    1.0058    0.0000 N.ar    1  LIG1       -0.3276
      6 C          -0.1974    0.5933    0.0000 C.ar    1  LIG1        0.1870
      7 N          -0.9821    0.8483    0.0000 N.ar    1  LIG1       -0.0599
      8 O          -1.4670    0.1808    0.0000 O.2     1  LIG1       -0.3601
      9 C          -0.9821   -0.4866    0.0000 C.ar    1  LIG1        0.1388
     10 C          -0.1974   -0.2317    0.0000 C.ar    1  LIG1        0.1239
     11 H           2.1854    1.1441    0.0000 H       1  LIG1        0.1028
     12 H           0.5170    2.0883    0.0000 H       1  LIG1        0.1683
     13 H          -1.3225   -1.5342    0.0000 H       1  LIG1        0.1066
@<TRIPOS>BOND
     1     1     2    2
     2     2     3   ar
     3     3     4   ar
     4     4     5   ar
     5     5     6   ar
     6     6     7   ar
     7     7     8   ar
     8     8     9   ar
     9     9    10   ar
    10     2    10   ar
    11     6    10   ar
    12     4    11    1
    13     5    12    1
    14     9    13    1
