@<TRIPOS>MOLECULE
c1cc2[nH]nccc2n1
 14 15 0 0 0
SMALL
GASTEIGER
Energy = 0

@<TRIPOS>ATOM
      1 N           0.5382   -0.8150    0.0000 N.ar    1  LIG1       -0.2755
      2 N           1.2527   -0.4025    0.0000 N.ar    1  LIG1       -0.1817
      3 C           1.2527    0.4225    0.0000 C.ar    1  LIG1        0.0498
      4 C           0.5382    0.8350    0.0000 C.ar    1  LIG1       -0.0145
      5 C          -0.1762    0.4225    0.0000 C.ar    1  LIG1        0.0900
      6 N          -0.9608    0.6774    0.0000 N.ar    1  LIG1       -0.2533
      7 C          -1.4458    0.0100    0.0000 C.ar    1  LIG1        0.0304
      8 C          -0.9608   -0.6575    0.0000 C.ar    1  LIG1       -0.0167
      9 C          -0.1762   -0.4025    0.0000 C.ar    1  LIG1        0.0839
     10 H           0.5382   -1.8975    0.0000 H       1  LIG1        0.1890
     11 H           2.2066    0.9733    0.0000 H       1  LIG1        0.0848
     12 H           0.5382    1.9365    0.0000 H       1  LIG1        0.0655
     13 H          -2.5473    0.0100    0.0000 H       1  LIG1        0.0830
     14 H          -1.3011   -1.7051    0.0000 H       1  LIG1        0.0654
@<TRIPOS>BOND
     1     1     2   ar
     2     2     3   ar
     3     3     4   ar
     4     4     5   ar
     5     5     6   ar
     6     6     7   ar
     7     7     8   ar
     8     8     9   ar
     9     1     9   ar
    10     5     9   ar
    11     1    10    1
    12     3    11    1
    13     4    12    1
    14     7    13    1
    15     8    14    1
