@<TRIPOS>MOLECULE
c1cc2ncccn2n1
 14 15 0 0 0
SMALL
GASTEIGER
Energy = 0

@<TRIPOS>ATOM
      1 C           1.2777    0.4080    0.0000 C.ar    1  LIG1       -0.0253
      2 C           0.5633    0.8205    0.0000 C.ar    1  LIG1        0.0328
      3 N          -0.1512    0.4080    0.0000 N.ar    1  LIG1       -0.2218
      4 N          -0.9358    0.6630    0.0000 N.ar    1  LIG1       -0.1734
      5 C          -1.4208   -0.0045    0.0000 C.ar    1  LIG1        0.0519
      6 C          -0.9358   -0.6719    0.0000 C.ar    1  LIG1        0.0023
      7 C          -0.1512   -0.4170    0.0000 C.ar    1  LIG1        0.1553
      8 N           0.5633   -0.8295    0.0000 N.ar    1  LIG1       -0.2361
      9 C           1.2777   -0.4170    0.0000 C.ar    1  LIG1        0.0314
     10 H           2.2316    0.9587    0.0000 H       1  LIG1        0.0648
     11 H           0.5633    1.9220    0.0000 H       1  LIG1        0.0831
     12 H          -2.5223   -0.0045    0.0000 H       1  LIG1        0.0848
     13 H          -1.2761   -1.7195    0.0000 H       1  LIG1        0.0670
     14 H           2.2316   -0.9677    0.0000 H       1  LIG1        0.0831
@<TRIPOS>BOND
     1     1     2   ar
     2     2     3   ar
     3     3     4   ar
     4     4     5   ar
     5     5     6   ar
     6     6     7   ar
     7     3     7   ar
     8     7     8   ar
     9     8     9   ar
    10     1     9   ar
    11     1    10    1
    12     2    11    1
    13     5    12    1
    14     6    13    1
    15     9    14    1
