@<TRIPOS>MOLECULE
Cn1c(=O)ccc2nccn12
 18 19 0 0 0
SMALL
GASTEIGER
Energy = 0

@<TRIPOS>ATOM
      1 C           0.2913    1.4096    0.0000 C.3     1  LIG1        0.0325
      2 N           0.2913    0.5846    0.0000 N.ar    1  LIG1       -0.2472
      3 N          -0.4231    0.1721    0.0000 N.ar    1  LIG1       -0.2379
      4 C          -1.2078    0.4271    0.0000 C.ar    1  LIG1        0.0477
      5 C          -1.6927   -0.2404    0.0000 C.ar    1  LIG1        0.0481
      6 N          -1.2078   -0.9078    0.0000 N.ar    1  LIG1       -0.2347
      7 C          -0.4231   -0.6529    0.0000 C.ar    1  LIG1        0.1524
      8 C           0.2913   -1.0654    0.0000 C.ar    1  LIG1       -0.0124
      9 C           1.0058   -0.6529    0.0000 C.ar    1  LIG1        0.0078
     10 C           1.0058    0.1721    0.0000 C.ar    1  LIG1        0.2659
     11 O           1.7203    0.5846    0.0000 O.2     1  LIG1       -0.2663
     12 H          -0.7833    1.7901    0.0000 H       1  LIG1        0.0473
     13 H           0.8498    1.8043   -0.9121 H       1  LIG1        0.0473
     14 H           0.8215    1.7843    0.9370 H       1  LIG1        0.0473
     15 H          -1.5482    1.4747    0.0000 H       1  LIG1        0.0846
     16 H          -2.7942   -0.2404    0.0000 H       1  LIG1        0.0846
     17 H           0.2913   -2.1669    0.0000 H       1  LIG1        0.0656
     18 H           1.9597   -1.2037    0.0000 H       1  LIG1        0.0673
@<TRIPOS>BOND
     1     1     2    1
     2     2     3   ar
     3     3     4   ar
     4     4     5   ar
     5     5     6   ar
     6     6     7   ar
     7     3     7   ar
     8     7     8   ar
     9     8     9   ar
    10     9    10   ar
    11     2    10   ar
    12    10    11    2
    13     1    12    1
    14     1    13    1
    15     1    14    1
    16     4    15    1
    17     5    16    1
    18     8    17    1
    19     9    18    1
