@<TRIPOS>MOLECULE
O=c1cc[nH]nn1
 10 10 0 0 0
SMALL
GASTEIGER
Energy = 0

@<TRIPOS>ATOM
      1 O           0.0303   -1.3868    0.0000 O.2     1  LIG1       -0.2642
      2 C           0.0303   -0.5618    0.0000 C.ar    1  LIG1        0.2914
      3 C           0.7448   -0.1493    0.0000 C.ar    1  LIG1        0.0237
      4 C           0.7448    0.6757    0.0000 C.ar    1  LIG1        0.0276
      5 N           0.0303    1.0882    0.0000 N.ar    1  LIG1       -0.2662
      6 N          -0.6841    0.6757    0.0000 N.ar    1  LIG1       -0.0649
      7 N          -0.6841   -0.1493    0.0000 N.ar    1  LIG1       -0.0887
      8 H           1.6987   -0.7001    0.0000 H       1  LIG1        0.0688
      9 H           1.6987    1.2265    0.0000 H       1  LIG1        0.0825
     10 H           0.0303    2.1707    0.0000 H       1  LIG1        0.1899
@<TRIPOS>BOND
     1     1     2    2
     2     2     3   ar
     3     3     4   ar
     4     4     5   ar
     5     5     6   ar
     6     6     7   ar
     7     2     7   ar
     8     3     8    1
     9     4     9    1
    10     5    10    1
