@<TRIPOS>MOLECULE
O=c1nc2sccc2c[nH]1
 14 15 0 0 0
SMALL
GASTEIGER
Energy = 0

@<TRIPOS>ATOM
      1 O           1.8719   -0.6400    0.0000 O.2     1  LIG1       -0.2447
      2 C           1.1574   -0.2275    0.0000 C.ar    1  LIG1        0.3469
      3 N           1.1574    0.5975    0.0000 N.ar    1  LIG1       -0.3123
      4 C           0.4429    1.0100    0.0000 C.ar    1  LIG1        0.0161
      5 C          -0.2715    0.5975    0.0000 C.ar    1  LIG1        0.0238
      6 C          -1.0562    0.8525    0.0000 C.ar    1  LIG1       -0.0441
      7 C          -1.5411    0.1850    0.0000 C.ar    1  LIG1       -0.0217
      8 S          -1.0562   -0.4824    0.0000 S.2     1  LIG1       -0.0769
      9 C          -0.2715   -0.2275    0.0000 C.ar    1  LIG1        0.1150
     10 N           0.4429   -0.6400    0.0000 N.ar    1  LIG1       -0.1859
     11 H           2.0949    1.1388    0.0000 H       1  LIG1        0.1699
     12 H           0.4429    2.1115    0.0000 H       1  LIG1        0.0815
     13 H          -1.3966    1.9001    0.0000 H       1  LIG1        0.0630
     14 H          -2.6426    0.1850    0.0000 H       1  LIG1        0.0694
@<TRIPOS>BOND
     1     1     2    2
     2     2     3   ar
     3     3     4   ar
     4     4     5   ar
     5     5     6   ar
     6     6     7   ar
     7     7     8   ar
     8     8     9   ar
     9     5     9   ar
    10     9    10   ar
    11     2    10   ar
    12     3    11    1
    13     4    12    1
    14     6    13    1
    15     7    14    1
