@<TRIPOS>MOLECULE
Cn1cnc2cnnc2c1
 16 17 0 0 0
SMALL
GASTEIGER
Energy = 0

@<TRIPOS>ATOM
      1 C           1.8053   -0.7437    0.0000 C.3     1  LIG1        0.0127
      2 N           1.0908   -0.3312    0.0000 N.ar    1  LIG1       -0.3392
      3 C           1.0908    0.4938    0.0000 C.ar    1  LIG1        0.0964
      4 N           0.3763    0.9063    0.0000 N.ar    1  LIG1       -0.2340
      5 C          -0.3381    0.4938    0.0000 C.ar    1  LIG1        0.1137
      6 C          -1.1228    0.7488    0.0000 C.ar    1  LIG1        0.0775
      7 N          -1.6077    0.0813    0.0000 N.ar    1  LIG1       -0.1548
      8 N          -1.1228   -0.5861    0.0000 N.ar    1  LIG1       -0.1461
      9 C          -0.3381   -0.3312    0.0000 C.ar    1  LIG1        0.1290
     10 C           0.3763   -0.7437    0.0000 C.ar    1  LIG1        0.0349
     11 H           2.6721   -0.0033    0.0000 H       1  LIG1        0.0456
     12 H           1.8679   -1.4247   -0.9121 H       1  LIG1        0.0456
     13 H           1.8647   -1.3903    0.9370 H       1  LIG1        0.0456
     14 H           2.0447    1.0446    0.0000 H       1  LIG1        0.1029
     15 H          -1.4632    1.7964    0.0000 H       1  LIG1        0.0870
     16 H           0.3763   -1.8452    0.0000 H       1  LIG1        0.0832
@<TRIPOS>BOND
     1     1     2    1
     2     2     3   ar
     3     3     4   ar
     4     4     5   ar
     5     5     6   ar
     6     6     7   ar
     7     7     8   ar
     8     8     9   ar
     9     5     9   ar
    10     9    10   ar
    11     2    10   ar
    12     1    11    1
    13     1    12    1
    14     1    13    1
    15     3    14    1
    16     6    15    1
    17    10    16    1
