@<TRIPOS>MOLECULE
Cn1cc2ncoc2nc1=O
 16 17 0 0 0
SMALL
GASTEIGER
Energy = 0

@<TRIPOS>ATOM
      1 C           1.6162    0.8623    0.0000 C.3     1  LIG1        0.0162
      2 N           0.9018    0.4498    0.0000 N.ar    1  LIG1       -0.2999
      3 C           0.1873    0.8623    0.0000 C.ar    1  LIG1        0.0398
      4 C          -0.5272    0.4498    0.0000 C.ar    1  LIG1        0.1451
      5 N          -1.3118    0.7047    0.0000 N.ar    1  LIG1       -0.2129
      6 C          -1.7967    0.0373    0.0000 C.ar    1  LIG1        0.1851
      7 O          -1.3118   -0.6302    0.0000 O.2     1  LIG1       -0.4242
      8 C          -0.5272   -0.3752    0.0000 C.ar    1  LIG1        0.2532
      9 N           0.1873   -0.7877    0.0000 N.ar    1  LIG1       -0.1554
     10 C           0.9018   -0.3752    0.0000 C.ar    1  LIG1        0.3514
     11 O           1.6162   -0.7877    0.0000 O.2     1  LIG1       -0.2444
     12 H           1.4084    1.9832    0.0000 H       1  LIG1        0.0457
     13 H           2.2372    0.5760   -0.9121 H       1  LIG1        0.0457
     14 H           2.2059    0.5905    0.9370 H       1  LIG1        0.0457
     15 H           0.1873    1.9638    0.0000 H       1  LIG1        0.0834
     16 H          -2.8982    0.0373    0.0000 H       1  LIG1        0.1256
@<TRIPOS>BOND
     1     1     2    1
     2     2     3   ar
     3     3     4   ar
     4     4     5   ar
     5     5     6   ar
     6     6     7   ar
     7     7     8   ar
     8     4     8   ar
     9     8     9   ar
    10     9    10   ar
    11     2    10   ar
    12    10    11    2
    13     1    12    1
    14     1    13    1
    15     1    14    1
    16     3    15    1
    17     6    16    1
