@<TRIPOS>MOLECULE
O=c1nc2nc[nH]cc2c(=O)[nH]1
 16 17 0 0 0
SMALL
GASTEIGER
Energy = 0

@<TRIPOS>ATOM
      1 O           1.8578   -0.8972    0.0000 O.2     1  LIG1       -0.2446
      2 C           1.1433   -0.4847    0.0000 C.ar    1  LIG1        0.3505
      3 N           1.1433    0.3403    0.0000 N.ar    1  LIG1       -0.2729
      4 C           0.4289    0.7528    0.0000 C.ar    1  LIG1        0.2647
      5 O           0.4289    1.5778    0.0000 O.2     1  LIG1       -0.2670
      6 C          -0.2856    0.3403    0.0000 C.ar    1  LIG1        0.0995
      7 C          -1.0001    0.7528    0.0000 C.ar    1  LIG1        0.0188
      8 N          -1.7146    0.3403    0.0000 N.ar    1  LIG1       -0.3513
      9 C          -1.7146   -0.4847    0.0000 C.ar    1  LIG1        0.0957
     10 N          -1.0001   -0.8972    0.0000 N.ar    1  LIG1       -0.2176
     11 C          -0.2856   -0.4847    0.0000 C.ar    1  LIG1        0.1732
     12 N           0.4289   -0.8972    0.0000 N.ar    1  LIG1       -0.1731
     13 H           2.0808    0.8815    0.0000 H       1  LIG1        0.1735
     14 H          -1.0001    1.8543    0.0000 H       1  LIG1        0.0816
     15 H          -2.6521    0.8816    0.0000 H       1  LIG1        0.1662
     16 H          -2.6685   -1.0355    0.0000 H       1  LIG1        0.1027
@<TRIPOS>BOND
     1     1     2    2
     2     2     3   ar
     3     3     4   ar
     4     4     5    2
     5     4     6   ar
     6     6     7   ar
     7     7     8   ar
     8     8     9   ar
     9     9    10   ar
    10    10    11   ar
    11     6    11   ar
    12    11    12   ar
    13     2    12   ar
    14     3    13    1
    15     7    14    1
    16     8    15    1
    17     9    16    1
