@<TRIPOS>MOLECULE
O=c1ncn2cncc2[nH]1
 14 15 0 0 0
SMALL
GASTEIGER
Energy = 0

@<TRIPOS>ATOM
      1 O           1.7389    0.7251    0.0000 O.2     1  LIG1       -0.2446
      2 C           1.0244    0.3126    0.0000 C.ar    1  LIG1        0.3487
      3 N           0.3099    0.7251    0.0000 N.ar    1  LIG1       -0.2908
      4 C          -0.4045    0.3126    0.0000 C.ar    1  LIG1        0.1399
      5 C          -1.1891    0.5675    0.0000 C.ar    1  LIG1        0.0703
      6 N          -1.6741   -0.0999    0.0000 N.ar    1  LIG1       -0.2415
      7 C          -1.1891   -0.7674    0.0000 C.ar    1  LIG1        0.1027
      8 N          -0.4045   -0.5124    0.0000 N.ar    1  LIG1       -0.2750
      9 C           0.3099   -0.9249    0.0000 C.ar    1  LIG1        0.1080
     10 N           1.0244   -0.5124    0.0000 N.ar    1  LIG1       -0.1830
     11 H           0.3099    1.8076    0.0000 H       1  LIG1        0.1719
     12 H          -1.5294    1.6151    0.0000 H       1  LIG1        0.0867
     13 H          -1.5294   -1.8150    0.0000 H       1  LIG1        0.1033
     14 H           0.3099   -2.0264    0.0000 H       1  LIG1        0.1035
@<TRIPOS>BOND
     1     1     2    2
     2     2     3   ar
     3     3     4   ar
     4     4     5   ar
     5     5     6   ar
     6     6     7   ar
     7     7     8   ar
     8     4     8   ar
     9     8     9   ar
    10     9    10   ar
    11     2    10   ar
    12     3    11    1
    13     5    12    1
    14     7    13    1
    15     9    14    1
