@<TRIPOS>MOLECULE
O=c1[nH]cnc2ccoc12
 14 15 0 0 0
SMALL
GASTEIGER
Energy = 0

@<TRIPOS>ATOM
      1 O          -0.4875   -1.4362    0.0000 O.2     1  LIG1       -0.2638
      2 C          -0.4875   -0.6112    0.0000 C.ar    1  LIG1        0.2944
      3 N          -1.2020   -0.1987    0.0000 N.ar    1  LIG1       -0.3104
      4 C          -1.2020    0.6263    0.0000 C.ar    1  LIG1        0.0968
      5 N          -0.4875    1.0388    0.0000 N.ar    1  LIG1       -0.2340
      6 C           0.2269    0.6263    0.0000 C.ar    1  LIG1        0.1159
      7 C           0.2269   -0.1987    0.0000 C.ar    1  LIG1        0.2168
      8 O           1.0115   -0.4536    0.0000 O.2     1  LIG1       -0.4559
      9 C           1.4965    0.2138    0.0000 C.ar    1  LIG1        0.0949
     10 C           1.0115    0.8812    0.0000 C.ar    1  LIG1        0.0024
     11 H          -2.1395   -0.7400    0.0000 H       1  LIG1        0.1699
     12 H          -2.1559    1.1771    0.0000 H       1  LIG1        0.1028
     13 H           2.5980    0.2138    0.0000 H       1  LIG1        0.1030
     14 H           1.3518    1.9288    0.0000 H       1  LIG1        0.0670
@<TRIPOS>BOND
     1     1     2    2
     2     2     3   ar
     3     3     4   ar
     4     4     5   ar
     5     5     6   ar
     6     6     7   ar
     7     2     7   ar
     8     7     8   ar
     9     8     9   ar
    10     9    10   ar
    11     6    10   ar
    12     3    11    1
    13     4    12    1
    14     9    13    1
    15    10    14    1
