@<TRIPOS>MOLECULE
Cn1nc2c(=O)[nH]ccn2c1=O
 18 19 0 0 0
SMALL
GASTEIGER
Energy = 0

@<TRIPOS>ATOM
      1 C           2.0058   -0.0281    0.0000 C.3     1  LIG1        0.0355
      2 N           1.1808   -0.0281    0.0000 N.ar    1  LIG1       -0.2153
      3 N           0.6958    0.6393    0.0000 N.ar    1  LIG1       -0.1434
      4 C          -0.0888    0.3844    0.0000 C.ar    1  LIG1        0.2266
      5 N          -0.0888   -0.4406    0.0000 N.ar    1  LIG1       -0.2451
      6 C          -0.8033   -0.8531    0.0000 C.ar    1  LIG1        0.0323
      7 C          -1.5177   -0.4406    0.0000 C.ar    1  LIG1        0.0217
      8 N          -1.5177    0.3844    0.0000 N.ar    1  LIG1       -0.3247
      9 C          -0.8033    0.7969    0.0000 C.ar    1  LIG1        0.2936
     10 O          -0.8033    1.6219    0.0000 O.2     1  LIG1       -0.2638
     11 C           0.6958   -0.6955    0.0000 C.ar    1  LIG1        0.3509
     12 O           0.9508   -1.4802    0.0000 O.2     1  LIG1       -0.2444
     13 H           2.3863    1.0465    0.0000 H       1  LIG1        0.0474
     14 H           2.4005   -0.5866   -0.9121 H       1  LIG1        0.0474
     15 H           2.3805   -0.5583    0.9370 H       1  LIG1        0.0474
     16 H          -0.8033   -1.9546    0.0000 H       1  LIG1        0.0829
     17 H          -2.4716   -0.9913    0.0000 H       1  LIG1        0.0823
     18 H          -2.4552    0.9256    0.0000 H       1  LIG1        0.1685
@<TRIPOS>BOND
     1     1     2    1
     2     2     3   ar
     3     3     4   ar
     4     4     5   ar
     5     5     6   ar
     6     6     7   ar
     7     7     8   ar
     8     8     9   ar
     9     4     9   ar
    10     9    10    2
    11     5    11   ar
    12     2    11   ar
    13    11    12    2
    14     1    13    1
    15     1    14    1
    16     1    15    1
    17     6    16    1
    18     7    17    1
    19     8    18    1
