@<TRIPOS>MOLECULE
O=c1[nH]c(=O)n2ccnc2[nH]1
 15 16 0 0 0
SMALL
GASTEIGER
Energy = 0

@<TRIPOS>ATOM
      1 O           1.6989   -0.9051    0.0000 O.2     1  LIG1       -0.2466
      2 C           0.9844   -0.4926    0.0000 C.ar    1  LIG1        0.3305
      3 N           0.9844    0.3324    0.0000 N.ar    1  LIG1       -0.2597
      4 C           0.2699    0.7449    0.0000 C.ar    1  LIG1        0.3372
      5 O           0.2699    1.5699    0.0000 O.2     1  LIG1       -0.2460
      6 N          -0.4445    0.3324    0.0000 N.ar    1  LIG1       -0.2374
      7 C          -1.2292    0.5873    0.0000 C.ar    1  LIG1        0.0356
      8 C          -1.7141   -0.0801    0.0000 C.ar    1  LIG1        0.0480
      9 N          -1.2292   -0.7476    0.0000 N.ar    1  LIG1       -0.2202
     10 C          -0.4445   -0.4926    0.0000 C.ar    1  LIG1        0.2203
     11 N           0.2699   -0.9051    0.0000 N.ar    1  LIG1       -0.2776
     12 H           1.9219    0.8737    0.0000 H       1  LIG1        0.1749
     13 H          -1.5696    1.6349    0.0000 H       1  LIG1        0.0831
     14 H          -2.8156   -0.0801    0.0000 H       1  LIG1        0.0846
     15 H           0.2699   -1.9876    0.0000 H       1  LIG1        0.1733
@<TRIPOS>BOND
     1     1     2    2
     2     2     3   ar
     3     3     4   ar
     4     4     5    2
     5     4     6   ar
     6     6     7   ar
     7     7     8   ar
     8     8     9   ar
     9     9    10   ar
    10     6    10   ar
    11    10    11   ar
    12     2    11   ar
    13     3    12    1
    14     7    13    1
    15     8    14    1
    16    11    15    1
