@<TRIPOS>MOLECULE
c1ncc2nnsc2n1
 11 12 0 0 0
SMALL
GASTEIGER
Energy = 0

@<TRIPOS>ATOM
      1 S           0.7981   -0.5729    0.0000 S.2     1  LIG1        0.0567
      2 N           1.2830    0.0946    0.0000 N.ar    1  LIG1       -0.1078
      3 N           0.7981    0.7620    0.0000 N.ar    1  LIG1       -0.1380
      4 C           0.0135    0.5071    0.0000 C.ar    1  LIG1        0.1383
      5 C          -0.7010    0.9196    0.0000 C.ar    1  LIG1        0.0591
      6 N          -1.4155    0.5071    0.0000 N.ar    1  LIG1       -0.2415
      7 C          -1.4155   -0.3179    0.0000 C.ar    1  LIG1        0.1174
      8 N          -0.7010   -0.7304    0.0000 N.ar    1  LIG1       -0.2252
      9 C           0.0135   -0.3179    0.0000 C.ar    1  LIG1        0.1510
     10 H          -0.7010    2.0211    0.0000 H       1  LIG1        0.0853
     11 H          -2.3694   -0.8687    0.0000 H       1  LIG1        0.1047
@<TRIPOS>BOND
     1     1     2   ar
     2     2     3   ar
     3     3     4   ar
     4     4     5   ar
     5     5     6   ar
     6     6     7   ar
     7     7     8   ar
     8     8     9   ar
     9     1     9   ar
    10     4     9   ar
    11     5    10    1
    12     7    11    1
