@<TRIPOS>MOLECULE
O=c1ccnc2sccn12
 14 15 0 0 0
SMALL
GASTEIGER
Energy = 0

@<TRIPOS>ATOM
      1 O           0.6165   -1.5677    0.0000 O.2     1  LIG1       -0.2672
      2 C           0.6165   -0.7427    0.0000 C.ar    1  LIG1        0.2587
      3 C           1.3310   -0.3302    0.0000 C.ar    1  LIG1        0.0215
      4 C           1.3310    0.4948    0.0000 C.ar    1  LIG1        0.0356
      5 N           0.6165    0.9073    0.0000 N.ar    1  LIG1       -0.2309
      6 C          -0.0980    0.4948    0.0000 C.ar    1  LIG1        0.1799
      7 S          -0.8826    0.7497    0.0000 S.2     1  LIG1       -0.0576
      8 C          -1.3675    0.0823    0.0000 C.ar    1  LIG1       -0.0043
      9 C          -0.8826   -0.5852    0.0000 C.ar    1  LIG1        0.0217
     10 N          -0.0980   -0.3302    0.0000 N.ar    1  LIG1       -0.2620
     11 H           2.2849   -0.8810    0.0000 H       1  LIG1        0.0687
     12 H           2.2849    1.0456    0.0000 H       1  LIG1        0.0832
     13 H          -2.4690    0.0823    0.0000 H       1  LIG1        0.0709
     14 H          -1.2230   -1.6328    0.0000 H       1  LIG1        0.0820
@<TRIPOS>BOND
     1     1     2    2
     2     2     3   ar
     3     3     4   ar
     4     4     5   ar
     5     5     6   ar
     6     6     7   ar
     7     7     8   ar
     8     8     9   ar
     9     9    10   ar
    10     2    10   ar
    11     6    10   ar
    12     3    11    1
    13     4    12    1
    14     8    13    1
    15     9    14    1
