@<TRIPOS>MOLECULE
Cn1c(=O)oc2cnccc12
 17 18 0 0 0
SMALL
GASTEIGER
Energy = 0

@<TRIPOS>ATOM
      1 C           0.8282   -1.3460    0.0000 C.3     1  LIG1        0.0183
      2 N           0.5733   -0.5613    0.0000 N.ar    1  LIG1       -0.2771
      3 C           1.0582    0.1061    0.0000 C.ar    1  LIG1        0.4211
      4 O           1.8832    0.1061    0.0000 O.2     1  LIG1       -0.2226
      5 O           0.5733    0.7735    0.0000 O.2     1  LIG1       -0.4059
      6 C          -0.2113    0.5186    0.0000 C.ar    1  LIG1        0.1749
      7 C          -0.9258    0.9311    0.0000 C.ar    1  LIG1        0.0720
      8 N          -1.6403    0.5186    0.0000 N.ar    1  LIG1       -0.2595
      9 C          -1.6403   -0.3064    0.0000 C.ar    1  LIG1        0.0298
     10 C          -0.9258   -0.7189    0.0000 C.ar    1  LIG1       -0.0163
     11 C          -0.2113   -0.3064    0.0000 C.ar    1  LIG1        0.0928
     12 H           1.9678   -1.3759    0.0000 H       1  LIG1        0.0458
     13 H           0.4190   -1.8939   -0.9121 H       1  LIG1        0.0458
     14 H           0.4397   -1.8662    0.9370 H       1  LIG1        0.0458
     15 H          -0.9258    2.0326    0.0000 H       1  LIG1        0.0868
     16 H          -2.5942   -0.8572    0.0000 H       1  LIG1        0.0830
     17 H          -0.9258   -1.8204    0.0000 H       1  LIG1        0.0654
@<TRIPOS>BOND
     1     1     2    1
     2     2     3   ar
     3     3     4    2
     4     3     5   ar
     5     5     6   ar
     6     6     7   ar
     7     7     8   ar
     8     8     9   ar
     9     9    10   ar
    10    10    11   ar
    11     2    11   ar
    12     6    11   ar
    13     1    12    1
    14     1    13    1
    15     1    14    1
    16     7    15    1
    17     9    16    1
    18    10    17    1
