@<TRIPOS>MOLECULE
Cn1c(=O)nc2sccn12
 15 16 0 0 0
SMALL
GASTEIGER
Energy = 0

@<TRIPOS>ATOM
      1 C           0.8171    1.4196    0.0000 C.3     1  LIG1        0.0340
      2 N           0.5622    0.6349    0.0000 N.ar    1  LIG1       -0.2304
      3 N          -0.2224    0.3800    0.0000 N.ar    1  LIG1       -0.2318
      4 C          -1.0070    0.6349    0.0000 C.ar    1  LIG1        0.0368
      5 C          -1.4920   -0.0325    0.0000 C.ar    1  LIG1       -0.0027
      6 S          -1.0070   -0.6999    0.0000 S.2     1  LIG1       -0.0562
      7 C          -0.2224   -0.4450    0.0000 C.ar    1  LIG1        0.1971
      8 N           0.5622   -0.6999    0.0000 N.ar    1  LIG1       -0.1658
      9 C           1.0471   -0.0325    0.0000 C.ar    1  LIG1        0.3655
     10 O           1.8721   -0.0325    0.0000 O.2     1  LIG1       -0.2429
     11 H          -0.0874    2.1135    0.0000 H       1  LIG1        0.0474
     12 H           1.4702    1.6224   -0.9121 H       1  LIG1        0.0474
     13 H           1.4372    1.6122    0.9370 H       1  LIG1        0.0474
     14 H          -1.3473    1.6825    0.0000 H       1  LIG1        0.0835
     15 H          -2.5935   -0.0325    0.0000 H       1  LIG1        0.0710
@<TRIPOS>BOND
     1     1     2    1
     2     2     3   ar
     3     3     4   ar
     4     4     5   ar
     5     5     6   ar
     6     6     7   ar
     7     3     7   ar
     8     7     8   ar
     9     8     9   ar
    10     2     9   ar
    11     9    10    2
    12     1    11    1
    13     1    12    1
    14     1    13    1
    15     4    14    1
    16     5    15    1
