@<TRIPOS>MOLECULE
Cn1c(=O)[nH]c2c[nH]cc2c1=O
 19 20 0 0 0
SMALL
GASTEIGER
Energy = 0

@<TRIPOS>ATOM
      1 C           1.5703   -0.6840    0.0000 C.3     1  LIG1        0.0196
      2 N           0.8558   -0.2715    0.0000 N.ar    1  LIG1       -0.2636
      3 C           0.8558    0.5535    0.0000 C.ar    1  LIG1        0.3296
      4 O           1.5703    0.9660    0.0000 O.2     1  LIG1       -0.2465
      5 N           0.1414    0.9660    0.0000 N.ar    1  LIG1       -0.3057
      6 C          -0.5731    0.5535    0.0000 C.ar    1  LIG1        0.0730
      7 C          -1.3577    0.8084    0.0000 C.ar    1  LIG1        0.0262
      8 N          -1.8427    0.1410    0.0000 N.ar    1  LIG1       -0.3646
      9 C          -1.3577   -0.5265    0.0000 C.ar    1  LIG1        0.0161
     10 C          -0.5731   -0.2715    0.0000 C.ar    1  LIG1        0.0802
     11 C           0.1414   -0.6840    0.0000 C.ar    1  LIG1        0.2655
     12 O           0.1414   -1.5090    0.0000 O.2     1  LIG1       -0.2668
     13 H           2.4371    0.0564    0.0000 H       1  LIG1        0.0458
     14 H           1.6329   -1.3650   -0.9121 H       1  LIG1        0.0458
     15 H           1.6297   -1.3306    0.9370 H       1  LIG1        0.0458
     16 H           0.1414    2.0485    0.0000 H       1  LIG1        0.1705
     17 H          -1.6980    1.8560    0.0000 H       1  LIG1        0.0828
     18 H          -2.9252    0.1410    0.0000 H       1  LIG1        0.1648
     19 H          -1.6980   -1.5741    0.0000 H       1  LIG1        0.0815
@<TRIPOS>BOND
     1     1     2    1
     2     2     3   ar
     3     3     4    2
     4     3     5   ar
     5     5     6   ar
     6     6     7   ar
     7     7     8   ar
     8     8     9   ar
     9     9    10   ar
    10     6    10   ar
    11    10    11   ar
    12     2    11   ar
    13    11    12    2
    14     1    13    1
    15     1    14    1
    16     1    15    1
    17     5    16    1
    18     7    17    1
    19     8    18    1
    20     9    19    1
