@<TRIPOS>MOLECULE
Cn1ccc2cc[nH]c12
 17 18 0 0 0
SMALL
GASTEIGER
Energy = 0

@<TRIPOS>ATOM
      1 C           0.9282   -1.2727    0.0000 C.3     1  LIG1        0.0132
      2 N           0.6732   -0.4881    0.0000 N.ar    1  LIG1       -0.3364
      3 C           1.1582    0.1794    0.0000 C.ar    1  LIG1        0.0067
      4 C           0.6732    0.8468    0.0000 C.ar    1  LIG1       -0.0349
      5 C          -0.1114    0.5919    0.0000 C.ar    1  LIG1        0.0183
      6 C          -0.1114   -0.2331    0.0000 C.ar    1  LIG1        0.1183
      7 N          -0.8960   -0.4881    0.0000 N.ar    1  LIG1       -0.3472
      8 C          -1.3809    0.1794    0.0000 C.ar    1  LIG1        0.0041
      9 C          -0.8960    0.8468    0.0000 C.ar    1  LIG1       -0.0351
     10 H           2.0678   -1.3025    0.0000 H       1  LIG1        0.0456
     11 H           0.5191   -1.8207   -0.9121 H       1  LIG1        0.0456
     12 H           0.5397   -1.7930    0.9370 H       1  LIG1        0.0456
     13 H           2.2597    0.1794    0.0000 H       1  LIG1        0.0809
     14 H           1.0135    1.8944    0.0000 H       1  LIG1        0.0639
     15 H          -1.2305   -1.5176    0.0000 H       1  LIG1        0.1667
     16 H          -2.4824    0.1794    0.0000 H       1  LIG1        0.0807
     17 H          -1.2364    1.8944    0.0000 H       1  LIG1        0.0639
@<TRIPOS>BOND
     1     1     2    1
     2     2     3   ar
     3     3     4   ar
     4     4     5   ar
     5     5     6   ar
     6     2     6   ar
     7     6     7   ar
     8     7     8   ar
     9     8     9   ar
    10     5     9   ar
    11     1    10    1
    12     1    11    1
    13     1    12    1
    14     3    13    1
    15     4    14    1
    16     7    15    1
    17     8    16    1
    18     9    17    1
