@<TRIPOS>MOLECULE
c1nnc2cccnn12
 13 14 0 0 0
SMALL
GASTEIGER
Energy = 0

@<TRIPOS>ATOM
      1 C           1.3022    0.4223    0.0000 C.ar    1  LIG1       -0.0384
      2 C           0.5877    0.8348    0.0000 C.ar    1  LIG1       -0.0142
      3 C          -0.1268    0.4223    0.0000 C.ar    1  LIG1        0.1776
      4 N          -0.9114    0.6772    0.0000 N.ar    1  LIG1       -0.1282
      5 N          -1.3963    0.0098    0.0000 N.ar    1  LIG1       -0.1357
      6 C          -0.9114   -0.6576    0.0000 C.ar    1  LIG1        0.1421
      7 N          -0.1268   -0.4027    0.0000 N.ar    1  LIG1       -0.2002
      8 N           0.5877   -0.8152    0.0000 N.ar    1  LIG1       -0.1720
      9 C           1.3022   -0.4027    0.0000 C.ar    1  LIG1        0.0486
     10 H           2.2561    0.9731    0.0000 H       1  LIG1        0.0634
     11 H           0.5877    1.9363    0.0000 H       1  LIG1        0.0656
     12 H          -1.2518   -1.7052    0.0000 H       1  LIG1        0.1067
     13 H           2.2561   -0.9535    0.0000 H       1  LIG1        0.0847
@<TRIPOS>BOND
     1     1     2   ar
     2     2     3   ar
     3     3     4   ar
     4     4     5   ar
     5     5     6   ar
     6     6     7   ar
     7     3     7   ar
     8     7     8   ar
     9     8     9   ar
    10     1     9   ar
    11     1    10    1
    12     2    11    1
    13     6    12    1
    14     9    13    1
