@<TRIPOS>MOLECULE
Cn1nc2[nH]ccc(=O)c2n1
 17 18 0 0 0
SMALL
GASTEIGER
Energy = 0

@<TRIPOS>ATOM
      1 C           2.0906    0.1718    0.0000 C.3     1  LIG1        0.0500
      2 N           1.2656    0.1718    0.0000 N.ar    1  LIG1       -0.1838
      3 N           0.7806    0.8392    0.0000 N.ar    1  LIG1       -0.1340
      4 C          -0.0040    0.5843    0.0000 C.ar    1  LIG1        0.1838
      5 N          -0.7185    0.9968    0.0000 N.ar    1  LIG1       -0.3430
      6 C          -1.4329    0.5843    0.0000 C.ar    1  LIG1        0.0073
      7 C          -1.4329   -0.2407    0.0000 C.ar    1  LIG1        0.0034
      8 C          -0.7185   -0.6532    0.0000 C.ar    1  LIG1        0.2109
      9 O          -0.7185   -1.4782    0.0000 O.2     1  LIG1       -0.2854
     10 C          -0.0040   -0.2407    0.0000 C.ar    1  LIG1        0.1759
     11 N           0.7806   -0.4957    0.0000 N.ar    1  LIG1       -0.1469
     12 H           2.4711    1.2464    0.0000 H       1  LIG1        0.0490
     13 H           2.4853   -0.3867   -0.9121 H       1  LIG1        0.0490
     14 H           2.4653   -0.3584    0.9370 H       1  LIG1        0.0490
     15 H          -0.7185    2.0793    0.0000 H       1  LIG1        0.1669
     16 H          -2.3868    1.1350    0.0000 H       1  LIG1        0.0808
     17 H          -2.3868   -0.7914    0.0000 H       1  LIG1        0.0671
@<TRIPOS>BOND
     1     1     2    1
     2     2     3   ar
     3     3     4   ar
     4     4     5   ar
     5     5     6   ar
     6     6     7   ar
     7     7     8   ar
     8     8     9    2
     9     8    10   ar
    10     4    10   ar
    11    10    11   ar
    12     2    11   ar
    13     1    12    1
    14     1    13    1
    15     1    14    1
    16     5    15    1
    17     6    16    1
    18     7    17    1
