@<TRIPOS>MOLECULE
O=c1ncn2[nH]ccc2n1
 14 15 0 0 0
SMALL
GASTEIGER
Energy = 0

@<TRIPOS>ATOM
      1 O           1.7316   -0.7352    0.0000 O.2     1  LIG1       -0.2425
      2 C           1.0171   -0.3227    0.0000 C.ar    1  LIG1        0.3709
      3 N           1.0171    0.5023    0.0000 N.ar    1  LIG1       -0.1800
      4 C           0.3026    0.9148    0.0000 C.ar    1  LIG1        0.1231
      5 N          -0.4119    0.5023    0.0000 N.ar    1  LIG1       -0.2259
      6 N          -1.1965    0.7573    0.0000 N.ar    1  LIG1       -0.2977
      7 C          -1.6814    0.0898    0.0000 C.ar    1  LIG1        0.0229
      8 C          -1.1965   -0.5776    0.0000 C.ar    1  LIG1        0.0001
      9 C          -0.4119   -0.3227    0.0000 C.ar    1  LIG1        0.1604
     10 N           0.3026   -0.7352    0.0000 N.ar    1  LIG1       -0.1723
     11 H           0.3026    2.0163    0.0000 H       1  LIG1        0.1049
     12 H          -1.5310    1.7868    0.0000 H       1  LIG1        0.1867
     13 H          -2.7829    0.0898    0.0000 H       1  LIG1        0.0824
     14 H          -1.5369   -1.6252    0.0000 H       1  LIG1        0.0670
@<TRIPOS>BOND
     1     1     2    2
     2     2     3   ar
     3     3     4   ar
     4     4     5   ar
     5     5     6   ar
     6     6     7   ar
     7     7     8   ar
     8     8     9   ar
     9     5     9   ar
    10     9    10   ar
    11     2    10   ar
    12     4    11    1
    13     6    12    1
    14     7    13    1
    15     8    14    1
