@<TRIPOS>MOLECULE
O=c1[nH]ccn2cncc12
 15 16 0 0 0
SMALL
GASTEIGER
Energy = 0

@<TRIPOS>ATOM
      1 O           0.4905   -1.4471    0.0000 O.2     1  LIG1       -0.2656
      2 C           0.4905   -0.6221    0.0000 C.ar    1  LIG1        0.2743
      3 N           1.2049   -0.2096    0.0000 N.ar    1  LIG1       -0.3260
      4 C           1.2049    0.6154    0.0000 C.ar    1  LIG1        0.0215
      5 C           0.4905    1.0279    0.0000 C.ar    1  LIG1        0.0274
      6 N          -0.2240    0.6154    0.0000 N.ar    1  LIG1       -0.3000
      7 C          -1.0086    0.8704    0.0000 C.ar    1  LIG1        0.1006
      8 N          -1.4936    0.2029    0.0000 N.ar    1  LIG1       -0.2429
      9 C          -1.0086   -0.4645    0.0000 C.ar    1  LIG1        0.0584
     10 C          -0.2240   -0.2096    0.0000 C.ar    1  LIG1        0.1304
     11 H           2.1424   -0.7508    0.0000 H       1  LIG1        0.1684
     12 H           2.1588    1.1661    0.0000 H       1  LIG1        0.0823
     13 H           0.4905    2.1294    0.0000 H       1  LIG1        0.0828
     14 H          -1.3489    1.9180    0.0000 H       1  LIG1        0.1032
     15 H          -1.3489   -1.5121    0.0000 H       1  LIG1        0.0853
@<TRIPOS>BOND
     1     1     2    2
     2     2     3   ar
     3     3     4   ar
     4     4     5   ar
     5     5     6   ar
     6     6     7   ar
     7     7     8   ar
     8     8     9   ar
     9     9    10   ar
    10     2    10   ar
    11     6    10   ar
    12     3    11    1
    13     4    12    1
    14     5    13    1
    15     7    14    1
    16     9    15    1
