@<TRIPOS>MOLECULE
Cn1c(=O)ncc2csnc12
 16 17 0 0 0
SMALL
GASTEIGER
Energy = 0

@<TRIPOS>ATOM
      1 C           0.4831   -1.4331    0.0000 C.3     1  LIG1        0.0181
      2 N           0.4831   -0.6081    0.0000 N.ar    1  LIG1       -0.2791
      3 C           1.1976   -0.1956    0.0000 C.ar    1  LIG1        0.3497
      4 O           1.9120   -0.6081    0.0000 O.2     1  LIG1       -0.2445
      5 N           1.1976    0.6294    0.0000 N.ar    1  LIG1       -0.2006
      6 C           0.4831    1.0419    0.0000 C.ar    1  LIG1        0.0442
      7 C          -0.2314    0.6294    0.0000 C.ar    1  LIG1        0.0443
      8 C          -1.0160    0.8844    0.0000 C.ar    1  LIG1        0.0064
      9 S          -1.5009    0.2169    0.0000 S.2     1  LIG1        0.0062
     10 N          -1.0160   -0.4505    0.0000 N.ar    1  LIG1       -0.1921
     11 C          -0.2314   -0.1956    0.0000 C.ar    1  LIG1        0.1545
     12 H           1.5577   -1.8136    0.0000 H       1  LIG1        0.0458
     13 H          -0.0754   -1.8278   -0.9121 H       1  LIG1        0.0458
     14 H          -0.0471   -1.8078    0.9370 H       1  LIG1        0.0458
     15 H           0.4831    2.1434    0.0000 H       1  LIG1        0.0838
     16 H          -1.3564    1.9320    0.0000 H       1  LIG1        0.0716
@<TRIPOS>BOND
     1     1     2    1
     2     2     3   ar
     3     3     4    2
     4     3     5   ar
     5     5     6   ar
     6     6     7   ar
     7     7     8   ar
     8     8     9   ar
     9     9    10   ar
    10    10    11   ar
    11     2    11   ar
    12     7    11   ar
    13     1    12    1
    14     1    13    1
    15     1    14    1
    16     6    15    1
    17     8    16    1
