@<TRIPOS>MOLECULE
O=c1ccc2c[nH]ccn12
 16 17 0 0 0
SMALL
GASTEIGER
Energy = 0

@<TRIPOS>ATOM
      1 O           1.0678   -1.2707    0.0000 O.2     1  LIG1       -0.2673
      2 C           0.8128   -0.4861    0.0000 C.ar    1  LIG1        0.2559
      3 C           1.2977    0.1814    0.0000 C.ar    1  LIG1        0.0053
      4 C           0.8128    0.8488    0.0000 C.ar    1  LIG1       -0.0312
      5 C           0.0282    0.5939    0.0000 C.ar    1  LIG1        0.0655
      6 C          -0.6863    1.0064    0.0000 C.ar    1  LIG1        0.0259
      7 N          -1.4007    0.5939    0.0000 N.ar    1  LIG1       -0.3641
      8 C          -1.4007   -0.2311    0.0000 C.ar    1  LIG1        0.0184
      9 C          -0.6863   -0.6436    0.0000 C.ar    1  LIG1        0.0292
     10 N           0.0282   -0.2311    0.0000 N.ar    1  LIG1       -0.2814
     11 H           2.3992    0.1814    0.0000 H       1  LIG1        0.0672
     12 H           1.1532    1.8964    0.0000 H       1  LIG1        0.0640
     13 H          -0.6863    2.1079    0.0000 H       1  LIG1        0.0828
     14 H          -2.3382    1.1351    0.0000 H       1  LIG1        0.1649
     15 H          -2.3546   -0.7818    0.0000 H       1  LIG1        0.0822
     16 H          -0.6863   -1.7451    0.0000 H       1  LIG1        0.0828
@<TRIPOS>BOND
     1     1     2    2
     2     2     3   ar
     3     3     4   ar
     4     4     5   ar
     5     5     6   ar
     6     6     7   ar
     7     7     8   ar
     8     8     9   ar
     9     9    10   ar
    10     2    10   ar
    11     5    10   ar
    12     3    11    1
    13     4    12    1
    14     6    13    1
    15     7    14    1
    16     8    15    1
    17     9    16    1
