@<TRIPOS>MOLECULE
Cn1cc2ncncc2n1
 16 17 0 0 0
SMALL
GASTEIGER
Energy = 0

@<TRIPOS>ATOM
      1 C           2.0353    0.0040    0.0000 C.3     1  LIG1        0.0303
      2 N           1.2103    0.0040    0.0000 N.ar    1  LIG1       -0.2718
      3 C           0.7254    0.6714    0.0000 C.ar    1  LIG1        0.0513
      4 C          -0.0592    0.4165    0.0000 C.ar    1  LIG1        0.1117
      5 N          -0.7737    0.8290    0.0000 N.ar    1  LIG1       -0.2323
      6 C          -1.4882    0.4165    0.0000 C.ar    1  LIG1        0.1168
      7 N          -1.4882   -0.4085    0.0000 N.ar    1  LIG1       -0.2415
      8 C          -0.7737   -0.8210    0.0000 C.ar    1  LIG1        0.0585
      9 C          -0.0592   -0.4085    0.0000 C.ar    1  LIG1        0.1289
     10 N           0.7254   -0.6635    0.0000 N.ar    1  LIG1       -0.1683
     11 H           2.4158    1.0786    0.0000 H       1  LIG1        0.0473
     12 H           2.4300   -0.5545   -0.9121 H       1  LIG1        0.0473
     13 H           2.4100   -0.5262    0.9370 H       1  LIG1        0.0473
     14 H           1.0658    1.7190    0.0000 H       1  LIG1        0.0848
     15 H          -2.4421    0.9673    0.0000 H       1  LIG1        0.1047
     16 H          -0.7737   -1.9225    0.0000 H       1  LIG1        0.0853
@<TRIPOS>BOND
     1     1     2    1
     2     2     3   ar
     3     3     4   ar
     4     4     5   ar
     5     5     6   ar
     6     6     7   ar
     7     7     8   ar
     8     8     9   ar
     9     4     9   ar
    10     9    10   ar
    11     2    10   ar
    12     1    11    1
    13     1    12    1
    14     1    13    1
    15     3    14    1
    16     6    15    1
    17     8    16    1
