@<TRIPOS>MOLECULE
O=c1ccc2cnsc2[nH]1
 14 15 0 0 0
SMALL
GASTEIGER
Energy = 0

@<TRIPOS>ATOM
      1 O          -1.9082    0.6344    0.0000 O.2     1  LIG1       -0.2679
      2 C          -1.1938    0.2219    0.0000 C.ar    1  LIG1        0.2496
      3 N          -0.4793    0.6344    0.0000 N.ar    1  LIG1       -0.3154
      4 C           0.2352    0.2219    0.0000 C.ar    1  LIG1        0.1073
      5 C           0.2352   -0.6031    0.0000 C.ar    1  LIG1        0.0255
      6 C          -0.4793   -1.0156    0.0000 C.ar    1  LIG1       -0.0455
      7 C          -1.1938   -0.6031    0.0000 C.ar    1  LIG1        0.0034
      8 C           1.0198   -0.8580    0.0000 C.ar    1  LIG1        0.0459
      9 N           1.5047   -0.1906    0.0000 N.ar    1  LIG1       -0.2161
     10 S           1.0198    0.4769    0.0000 S.2     1  LIG1        0.0296
     11 H          -0.4793    1.7169    0.0000 H       1  LIG1        0.1694
     12 H          -0.4793   -2.1171    0.0000 H       1  LIG1        0.0626
     13 H          -2.1477   -1.1539    0.0000 H       1  LIG1        0.0672
     14 H           1.3602   -1.9056    0.0000 H       1  LIG1        0.0843
@<TRIPOS>BOND
     1     1     2    2
     2     2     3   ar
     3     3     4   ar
     4     4     5   ar
     5     5     6   ar
     6     6     7   ar
     7     2     7   ar
     8     5     8   ar
     9     8     9   ar
    10     9    10   ar
    11     4    10   ar
    12     3    11    1
    13     6    12    1
    14     7    13    1
    15     8    14    1
