@<TRIPOS>MOLECULE
Cn1ccc2oncc2c1=O
 17 18 0 0 0
SMALL
GASTEIGER
Energy = 0

@<TRIPOS>ATOM
      1 C          -1.7842   -0.5858    0.0000 C.3     1  LIG1        0.0147
      2 N          -1.0697   -0.1733    0.0000 N.ar    1  LIG1       -0.3175
      3 C          -1.0697    0.6517    0.0000 C.ar    1  LIG1        0.0112
      4 C          -0.3553    1.0642    0.0000 C.ar    1  LIG1        0.0003
      5 C           0.3592    0.6517    0.0000 C.ar    1  LIG1        0.1738
      6 C           0.3592   -0.1733    0.0000 C.ar    1  LIG1        0.1054
      7 C           1.1438   -0.4282    0.0000 C.ar    1  LIG1        0.0830
      8 N           1.6287    0.2392    0.0000 N.ar    1  LIG1       -0.0853
      9 O           1.1438    0.9067    0.0000 O.2     1  LIG1       -0.3544
     10 C          -0.3553   -0.5858    0.0000 C.ar    1  LIG1        0.2634
     11 O          -0.3553   -1.4108    0.0000 O.2     1  LIG1       -0.2669
     12 H          -2.6510    0.1546    0.0000 H       1  LIG1        0.0457
     13 H          -1.8468   -1.2668    0.9121 H       1  LIG1        0.0457
     14 H          -1.8436   -1.2324   -0.9370 H       1  LIG1        0.0457
     15 H          -2.0236    1.2024    0.0000 H       1  LIG1        0.0811
     16 H          -0.3553    2.1657    0.0000 H       1  LIG1        0.0670
     17 H           1.4842   -1.4758    0.0000 H       1  LIG1        0.0872
@<TRIPOS>BOND
     1     1     2    1
     2     2     3   ar
     3     3     4   ar
     4     4     5   ar
     5     5     6   ar
     6     6     7   ar
     7     7     8   ar
     8     8     9   ar
     9     5     9   ar
    10     6    10   ar
    11     2    10   ar
    12    10    11    2
    13     1    12    1
    14     1    13    1
    15     1    14    1
    16     3    15    1
    17     4    16    1
    18     7    17    1
