@<TRIPOS>MOLECULE
c1nnn2cncnc12
 12 13 0 0 0
SMALL
GASTEIGER
Energy = 0

@<TRIPOS>ATOM
      1 C           1.2801    0.4238    0.0000 C.ar    1  LIG1        0.1201
      2 N           0.5657    0.8363    0.0000 N.ar    1  LIG1       -0.2149
      3 C          -0.1488    0.4238    0.0000 C.ar    1  LIG1        0.1786
      4 C          -0.9334    0.6787    0.0000 C.ar    1  LIG1        0.0958
      5 N          -1.4183    0.0113    0.0000 N.ar    1  LIG1       -0.1353
      6 N          -0.9334   -0.6562    0.0000 N.ar    1  LIG1       -0.0580
      7 N          -0.1488   -0.4012    0.0000 N.ar    1  LIG1       -0.1838
      8 C           0.5657   -0.8137    0.0000 C.ar    1  LIG1        0.1231
      9 N           1.2801   -0.4012    0.0000 N.ar    1  LIG1       -0.2240
     10 H           2.2340    0.9745    0.0000 H       1  LIG1        0.1048
     11 H          -1.2738    1.7263    0.0000 H       1  LIG1        0.0887
     12 H           0.5657   -1.9152    0.0000 H       1  LIG1        0.1049
@<TRIPOS>BOND
     1     1     2   ar
     2     2     3   ar
     3     3     4   ar
     4     4     5   ar
     5     5     6   ar
     6     6     7   ar
     7     3     7   ar
     8     7     8   ar
     9     8     9   ar
    10     1     9   ar
    11     1    10    1
    12     4    11    1
    13     8    12    1
