@<TRIPOS>MOLECULE
Cn1c(=O)nc[nH]c1=O
 14 14 0 0 0
SMALL
GASTEIGER
Energy = 0

@<TRIPOS>ATOM
      1 C          -0.0000   -1.2714    0.0000 C.3     1  LIG1        0.0210
      2 N          -0.0000   -0.4464    0.0000 N.ar    1  LIG1       -0.2478
      3 C           0.7145   -0.0339    0.0000 C.ar    1  LIG1        0.3313
      4 O           1.4289   -0.4464    0.0000 O.2     1  LIG1       -0.2464
      5 N           0.7145    0.7911    0.0000 N.ar    1  LIG1       -0.2983
      6 C           0.0000    1.2036    0.0000 C.ar    1  LIG1        0.1025
      7 N          -0.7145    0.7911    0.0000 N.ar    1  LIG1       -0.1833
      8 C          -0.7145   -0.0339    0.0000 C.ar    1  LIG1        0.3534
      9 O          -1.4289   -0.4464    0.0000 O.2     1  LIG1       -0.2443
     10 H           1.0746   -1.6519    0.0000 H       1  LIG1        0.0459
     11 H          -0.5585   -1.6661   -0.9121 H       1  LIG1        0.0459
     12 H          -0.5302   -1.6461    0.9370 H       1  LIG1        0.0459
     13 H           1.6520    1.3324    0.0000 H       1  LIG1        0.1713
     14 H           0.0000    2.3051    0.0000 H       1  LIG1        0.1030
@<TRIPOS>BOND
     1     1     2    1
     2     2     3   ar
     3     3     4    2
     4     3     5   ar
     5     5     6   ar
     6     6     7   ar
     7     7     8   ar
     8     2     8   ar
     9     8     9    2
    10     1    10    1
    11     1    11    1
    12     1    12    1
    13     5    13    1
    14     6    14    1
