@<TRIPOS>MOLECULE
c1cc2nnncc2[nH]1
 13 14 0 0 0
SMALL
GASTEIGER
Energy = 0

@<TRIPOS>ATOM
      1 N           0.9824   -0.6701    0.0000 N.ar    1  LIG1       -0.3581
      2 C           1.4673   -0.0027    0.0000 C.ar    1  LIG1        0.0043
      3 C           0.9824    0.6647    0.0000 C.ar    1  LIG1       -0.0165
      4 C           0.1978    0.4098    0.0000 C.ar    1  LIG1        0.1139
      5 N          -0.5167    0.8223    0.0000 N.ar    1  LIG1       -0.1278
      6 N          -1.2312    0.4098    0.0000 N.ar    1  LIG1       -0.0427
      7 N          -1.2312   -0.4152    0.0000 N.ar    1  LIG1       -0.1357
      8 C          -0.5167   -0.8277    0.0000 C.ar    1  LIG1        0.0770
      9 C           0.1978   -0.4152    0.0000 C.ar    1  LIG1        0.0869
     10 H           1.3169   -1.6996    0.0000 H       1  LIG1        0.1654
     11 H           2.5688   -0.0027    0.0000 H       1  LIG1        0.0807
     12 H           1.3228    1.7123    0.0000 H       1  LIG1        0.0654
     13 H          -0.5167   -1.9292    0.0000 H       1  LIG1        0.0870
@<TRIPOS>BOND
     1     1     2   ar
     2     2     3   ar
     3     3     4   ar
     4     4     5   ar
     5     5     6   ar
     6     6     7   ar
     7     7     8   ar
     8     8     9   ar
     9     1     9   ar
    10     4     9   ar
    11     1    10    1
    12     2    11    1
    13     3    12    1
    14     8    13    1
