@<TRIPOS>MOLECULE
Cn1cc2ncccc2cc1=O
 20 21 0 0 0
SMALL
GASTEIGER
Energy = 0

@<TRIPOS>ATOM
      1 C           1.7393    0.8304    0.0000 C.3     1  LIG1        0.0148
      2 N           1.0249    0.4179    0.0000 N.ar    1  LIG1       -0.3162
      3 C           0.3104    0.8304    0.0000 C.ar    1  LIG1        0.0335
      4 C          -0.4041    0.4179    0.0000 C.ar    1  LIG1        0.0873
      5 N          -1.1185    0.8304    0.0000 N.ar    1  LIG1       -0.2535
      6 C          -1.8330    0.4179    0.0000 C.ar    1  LIG1        0.0283
      7 C          -1.8330   -0.4071    0.0000 C.ar    1  LIG1       -0.0430
      8 C          -1.1185   -0.8196    0.0000 C.ar    1  LIG1       -0.0509
      9 C          -0.4041   -0.4071    0.0000 C.ar    1  LIG1        0.0069
     10 C           0.3104   -0.8196    0.0000 C.ar    1  LIG1        0.0121
     11 C           1.0249   -0.4071    0.0000 C.ar    1  LIG1        0.2517
     12 O           1.7393   -0.8196    0.0000 O.2     1  LIG1       -0.2677
     13 H           1.5315    1.9513    0.0000 H       1  LIG1        0.0457
     14 H           2.3603    0.5441   -0.9121 H       1  LIG1        0.0457
     15 H           2.3290    0.5586    0.9370 H       1  LIG1        0.0457
     16 H           0.3104    1.9319    0.0000 H       1  LIG1        0.0832
     17 H          -2.7869    0.9687    0.0000 H       1  LIG1        0.0830
     18 H          -2.7869   -0.9579    0.0000 H       1  LIG1        0.0633
     19 H          -1.1185   -1.9211    0.0000 H       1  LIG1        0.0625
     20 H           0.3104   -1.9211    0.0000 H       1  LIG1        0.0678
@<TRIPOS>BOND
     1     1     2    1
     2     2     3   ar
     3     3     4   ar
     4     4     5   ar
     5     5     6   ar
     6     6     7   ar
     7     7     8   ar
     8     8     9   ar
     9     4     9   ar
    10     9    10   ar
    11    10    11   ar
    12     2    11   ar
    13    11    12    2
    14     1    13    1
    15     1    14    1
    16     1    15    1
    17     3    16    1
    18     6    17    1
    19     7    18    1
    20     8    19    1
    21    10    20    1
