@<TRIPOS>MOLECULE
c1ccc2nnncc2c1
 15 16 0 0 0
SMALL
GASTEIGER
Energy = 0

@<TRIPOS>ATOM
      1 C           1.4855   -0.4256    0.0000 C.ar    1  LIG1       -0.0610
      2 C           1.4855    0.3994    0.0000 C.ar    1  LIG1       -0.0597
      3 C           0.7710    0.8119    0.0000 C.ar    1  LIG1       -0.0339
      4 C           0.0565    0.3994    0.0000 C.ar    1  LIG1        0.0965
      5 N          -0.6579    0.8119    0.0000 N.ar    1  LIG1       -0.1293
      6 N          -1.3724    0.3994    0.0000 N.ar    1  LIG1       -0.0428
      7 N          -1.3724   -0.4256    0.0000 N.ar    1  LIG1       -0.1371
      8 C          -0.6579   -0.8381    0.0000 C.ar    1  LIG1        0.0608
      9 C           0.0565   -0.4256    0.0000 C.ar    1  LIG1        0.0220
     10 C           0.7710   -0.8381    0.0000 C.ar    1  LIG1       -0.0510
     11 H           2.4394   -0.9764    0.0000 H       1  LIG1        0.0618
     12 H           2.4394    0.9502    0.0000 H       1  LIG1        0.0618
     13 H           0.7710    1.9134    0.0000 H       1  LIG1        0.0639
     14 H          -0.6579   -1.9396    0.0000 H       1  LIG1        0.0855
     15 H           0.7710   -1.9396    0.0000 H       1  LIG1        0.0625
@<TRIPOS>BOND
     1     1     2   ar
     2     2     3   ar
     3     3     4   ar
     4     4     5   ar
     5     5     6   ar
     6     6     7   ar
     7     7     8   ar
     8     8     9   ar
     9     4     9   ar
    10     9    10   ar
    11     1    10   ar
    12     1    11    1
    13     2    12    1
    14     3    13    1
    15     8    14    1
    16    10    15    1
