@<TRIPOS>MOLECULE
Cn1[nH]cc2c(=O)ccnc12
 18 19 0 0 0
SMALL
GASTEIGER
Energy = 0

@<TRIPOS>ATOM
      1 C           1.1357   -1.4941    0.0000 C.3     1  LIG1        0.0303
      2 N           0.8808   -0.7095    0.0000 N.ar    1  LIG1       -0.2724
      3 N           1.3657   -0.0421    0.0000 N.ar    1  LIG1       -0.3026
      4 C           0.8808    0.6254    0.0000 C.ar    1  LIG1        0.0334
      5 C           0.0962    0.3704    0.0000 C.ar    1  LIG1        0.0827
      6 C          -0.6183    0.7829    0.0000 C.ar    1  LIG1        0.1925
      7 O          -0.6183    1.6079    0.0000 O.2     1  LIG1       -0.2871
      8 C          -1.3328    0.3704    0.0000 C.ar    1  LIG1        0.0040
      9 C          -1.3328   -0.4546    0.0000 C.ar    1  LIG1        0.0336
     10 N          -0.6183   -0.8671    0.0000 N.ar    1  LIG1       -0.2357
     11 C           0.0962   -0.4546    0.0000 C.ar    1  LIG1        0.1599
     12 H           2.2753   -1.5240    0.0000 H       1  LIG1        0.0473
     13 H           0.7265   -2.0420   -0.9121 H       1  LIG1        0.0473
     14 H           0.7472   -2.0143    0.9370 H       1  LIG1        0.0473
     15 H           2.4482   -0.0421    0.0000 H       1  LIG1        0.1863
     16 H           1.2212    1.6730    0.0000 H       1  LIG1        0.0831
     17 H          -2.2867    0.9212    0.0000 H       1  LIG1        0.0671
     18 H          -2.2867   -1.0054    0.0000 H       1  LIG1        0.0831
@<TRIPOS>BOND
     1     1     2    1
     2     2     3   ar
     3     3     4   ar
     4     4     5   ar
     5     5     6   ar
     6     6     7    2
     7     6     8   ar
     8     8     9   ar
     9     9    10   ar
    10    10    11   ar
    11     2    11   ar
    12     5    11   ar
    13     1    12    1
    14     1    13    1
    15     1    14    1
    16     3    15    1
    17     4    16    1
    18     8    17    1
    19     9    18    1
