@<TRIPOS>MOLECULE
Cn1ccc(=O)c2ocnc12
 17 18 0 0 0
SMALL
GASTEIGER
Energy = 0

@<TRIPOS>ATOM
      1 C          -0.4776   -1.6935    0.0000 C.3     1  LIG1        0.0133
      2 N          -0.4776   -0.8685    0.0000 N.ar    1  LIG1       -0.3322
      3 C          -1.1920   -0.4560    0.0000 C.ar    1  LIG1        0.0100
      4 C          -1.1920    0.3690    0.0000 C.ar    1  LIG1        0.0051
      5 C          -0.4776    0.7815    0.0000 C.ar    1  LIG1        0.2259
      6 O          -0.4776    1.6065    0.0000 O.2     1  LIG1       -0.2838
      7 C           0.2369    0.3690    0.0000 C.ar    1  LIG1        0.2183
      8 C           0.2369   -0.4560    0.0000 C.ar    1  LIG1        0.1830
      9 N           1.0215   -0.7109    0.0000 N.ar    1  LIG1       -0.1980
     10 C           1.5064   -0.0435    0.0000 C.ar    1  LIG1        0.1847
     11 O           1.0215    0.6240    0.0000 O.2     1  LIG1       -0.4370
     12 H          -1.5522   -2.0740    0.0000 H       1  LIG1        0.0456
     13 H           0.0809   -2.0882    0.9121 H       1  LIG1        0.0456
     14 H           0.0526   -2.0682   -0.9370 H       1  LIG1        0.0456
     15 H          -2.1459   -1.0067    0.0000 H       1  LIG1        0.0810
     16 H          -2.1459    0.9197    0.0000 H       1  LIG1        0.0671
     17 H           2.6079   -0.0435    0.0000 H       1  LIG1        0.1255
@<TRIPOS>BOND
     1     1     2    1
     2     2     3   ar
     3     3     4   ar
     4     4     5   ar
     5     5     6    2
     6     5     7   ar
     7     7     8   ar
     8     2     8   ar
     9     8     9   ar
    10     9    10   ar
    11    10    11   ar
    12     7    11   ar
    13     1    12    1
    14     1    13    1
    15     1    14    1
    16     3    15    1
    17     4    16    1
    18    10    17    1
