@<TRIPOS>MOLECULE
Cn1ccn2c(=O)cccc12
 19 20 0 0 0
SMALL
GASTEIGER
Energy = 0

@<TRIPOS>ATOM
      1 C           1.1450   -1.5124    0.0000 C.3     1  LIG1        0.0132
      2 N           0.8901   -0.7278    0.0000 N.ar    1  LIG1       -0.3350
      3 C           1.3750   -0.0603    0.0000 C.ar    1  LIG1        0.0227
      4 C           0.8901    0.6071    0.0000 C.ar    1  LIG1        0.0307
      5 N           0.1054    0.3522    0.0000 N.ar    1  LIG1       -0.2682
      6 C          -0.6090    0.7647    0.0000 C.ar    1  LIG1        0.2568
      7 O          -0.6090    1.5897    0.0000 O.2     1  LIG1       -0.2673
      8 C          -1.3235    0.3522    0.0000 C.ar    1  LIG1        0.0034
      9 C          -1.3235   -0.4728    0.0000 C.ar    1  LIG1       -0.0532
     10 C          -0.6090   -0.8853    0.0000 C.ar    1  LIG1       -0.0203
     11 C           0.1054   -0.4728    0.0000 C.ar    1  LIG1        0.1204
     12 H           2.2846   -1.5423    0.0000 H       1  LIG1        0.0456
     13 H           0.7358   -2.0603   -0.9121 H       1  LIG1        0.0456
     14 H           0.7565   -2.0326    0.9370 H       1  LIG1        0.0456
     15 H           2.4765   -0.0603    0.0000 H       1  LIG1        0.0824
     16 H           1.2305    1.6547    0.0000 H       1  LIG1        0.0829
     17 H          -2.2774    0.9030    0.0000 H       1  LIG1        0.0672
     18 H          -2.2774   -1.0236    0.0000 H       1  LIG1        0.0620
     19 H          -0.6090   -1.9868    0.0000 H       1  LIG1        0.0654
@<TRIPOS>BOND
     1     1     2    1
     2     2     3   ar
     3     3     4   ar
     4     4     5   ar
     5     5     6   ar
     6     6     7    2
     7     6     8   ar
     8     8     9   ar
     9     9    10   ar
    10    10    11   ar
    11     2    11   ar
    12     5    11   ar
    13     1    12    1
    14     1    13    1
    15     1    14    1
    16     3    15    1
    17     4    16    1
    18     8    17    1
    19     9    18    1
    20    10    19    1
