@<TRIPOS>MOLECULE
Cn1c(=O)cnc2nccnc12
 18 19 0 0 0
SMALL
GASTEIGER
Energy = 0

@<TRIPOS>ATOM
      1 C           0.4398   -1.4385    0.0000 C.3     1  LIG1        0.0168
      2 N           0.4398   -0.6135    0.0000 N.ar    1  LIG1       -0.2922
      3 C           1.1543   -0.2010    0.0000 C.ar    1  LIG1        0.2709
      4 O           1.8688   -0.6135    0.0000 O.2     1  LIG1       -0.2660
      5 C           1.1543    0.6240    0.0000 C.ar    1  LIG1        0.0945
      6 N           0.4398    1.0365    0.0000 N.ar    1  LIG1       -0.2277
      7 C          -0.2747    0.6240    0.0000 C.ar    1  LIG1        0.1962
      8 N          -0.9891    1.0365    0.0000 N.ar    1  LIG1       -0.2316
      9 C          -1.7036    0.6240    0.0000 C.ar    1  LIG1        0.0482
     10 C          -1.7036   -0.2010    0.0000 C.ar    1  LIG1        0.0481
     11 N          -0.9891   -0.6135    0.0000 N.ar    1  LIG1       -0.2329
     12 C          -0.2747   -0.2010    0.0000 C.ar    1  LIG1        0.1809
     13 H           1.5144   -1.8190    0.0000 H       1  LIG1        0.0457
     14 H          -0.1187   -1.8332   -0.9121 H       1  LIG1        0.0457
     15 H          -0.0904   -1.8132    0.9370 H       1  LIG1        0.0457
     16 H           2.1082    1.1748    0.0000 H       1  LIG1        0.0886
     17 H          -2.6575    1.1748    0.0000 H       1  LIG1        0.0846
     18 H          -2.6575   -0.7518    0.0000 H       1  LIG1        0.0846
@<TRIPOS>BOND
     1     1     2    1
     2     2     3   ar
     3     3     4    2
     4     3     5   ar
     5     5     6   ar
     6     6     7   ar
     7     7     8   ar
     8     8     9   ar
     9     9    10   ar
    10    10    11   ar
    11    11    12   ar
    12     2    12   ar
    13     7    12   ar
    14     1    13    1
    15     1    14    1
    16     1    15    1
    17     5    16    1
    18     9    17    1
    19    10    18    1
