@<TRIPOS>MOLECULE
O=c1[nH]ncc2ccoc12
 14 15 0 0 0
SMALL
GASTEIGER
Energy = 0

@<TRIPOS>ATOM
      1 O          -0.4767   -1.4300    0.0000 O.2     1  LIG1       -0.2624
      2 C          -0.4767   -0.6050    0.0000 C.ar    1  LIG1        0.3077
      3 N          -1.1912   -0.1925    0.0000 N.ar    1  LIG1       -0.2402
      4 N          -1.1912    0.6325    0.0000 N.ar    1  LIG1       -0.1786
      5 C          -0.4767    1.0450    0.0000 C.ar    1  LIG1        0.0587
      6 C           0.2377    0.6325    0.0000 C.ar    1  LIG1        0.0453
      7 C           0.2377   -0.1925    0.0000 C.ar    1  LIG1        0.2016
      8 O           1.0223   -0.4474    0.0000 O.2     1  LIG1       -0.4574
      9 C           1.5073    0.2200    0.0000 C.ar    1  LIG1        0.0934
     10 C           1.0223    0.8875    0.0000 C.ar    1  LIG1       -0.0144
     11 H          -2.1287   -0.7338    0.0000 H       1  LIG1        0.1922
     12 H          -0.4767    2.1465    0.0000 H       1  LIG1        0.0854
     13 H           2.6088    0.2200    0.0000 H       1  LIG1        0.1030
     14 H           1.3626    1.9351    0.0000 H       1  LIG1        0.0656
@<TRIPOS>BOND
     1     1     2    2
     2     2     3   ar
     3     3     4   ar
     4     4     5   ar
     5     5     6   ar
     6     6     7   ar
     7     2     7   ar
     8     7     8   ar
     9     8     9   ar
    10     9    10   ar
    11     6    10   ar
    12     3    11    1
    13     5    12    1
    14     9    13    1
    15    10    14    1
