@<TRIPOS>MOLECULE
O=c1ncc2cnc[nH]c2n1
 15 16 0 0 0
SMALL
GASTEIGER
Energy = 0

@<TRIPOS>ATOM
      1 O           1.9054   -0.7220    0.0000 O.2     1  LIG1       -0.2426
      2 C           1.1909   -0.3095    0.0000 C.ar    1  LIG1        0.3695
      3 N           1.1909    0.5155    0.0000 N.ar    1  LIG1       -0.1991
      4 C           0.4765    0.9280    0.0000 C.ar    1  LIG1        0.0451
      5 C          -0.2380    0.5155    0.0000 C.ar    1  LIG1        0.0537
      6 C          -0.9525    0.9280    0.0000 C.ar    1  LIG1        0.0413
      7 N          -1.6669    0.5155    0.0000 N.ar    1  LIG1       -0.2449
      8 C          -1.6669   -0.3095    0.0000 C.ar    1  LIG1        0.0947
      9 N          -0.9525   -0.7220    0.0000 N.ar    1  LIG1       -0.3303
     10 C          -0.2380   -0.3095    0.0000 C.ar    1  LIG1        0.1476
     11 N           0.4765   -0.7220    0.0000 N.ar    1  LIG1       -0.1736
     12 H           0.4765    2.0295    0.0000 H       1  LIG1        0.0839
     13 H          -0.9525    2.0295    0.0000 H       1  LIG1        0.0838
     14 H          -2.6208   -0.8602    0.0000 H       1  LIG1        0.1027
     15 H          -0.9525   -1.8045    0.0000 H       1  LIG1        0.1682
@<TRIPOS>BOND
     1     1     2    2
     2     2     3   ar
     3     3     4   ar
     4     4     5   ar
     5     5     6   ar
     6     6     7   ar
     7     7     8   ar
     8     8     9   ar
     9     9    10   ar
    10     5    10   ar
    11    10    11   ar
    12     2    11   ar
    13     4    12    1
    14     6    13    1
    15     8    14    1
    16     9    15    1
