@<TRIPOS>MOLECULE
O=c1[nH]ccc2[nH]ccc12
 16 17 0 0 0
SMALL
GASTEIGER
Energy = 0

@<TRIPOS>ATOM
      1 O          -0.4794   -1.4479    0.0000 O.2     1  LIG1       -0.2672
      2 C          -0.4794   -0.6229    0.0000 C.ar    1  LIG1        0.2579
      3 N          -1.1939   -0.2104    0.0000 N.ar    1  LIG1       -0.3285
      4 C          -1.1939    0.6146    0.0000 C.ar    1  LIG1        0.0069
      5 C          -0.4794    1.0271    0.0000 C.ar    1  LIG1       -0.0216
      6 C           0.2351    0.6146    0.0000 C.ar    1  LIG1        0.0531
      7 C           0.2351   -0.2104    0.0000 C.ar    1  LIG1        0.0639
      8 C           1.0197   -0.4653    0.0000 C.ar    1  LIG1       -0.0315
      9 C           1.5046    0.2021    0.0000 C.ar    1  LIG1        0.0029
     10 N           1.0197    0.8696    0.0000 N.ar    1  LIG1       -0.3605
     11 H          -2.1314   -0.7517    0.0000 H       1  LIG1        0.1683
     12 H          -2.1478    1.1654    0.0000 H       1  LIG1        0.0808
     13 H          -0.4794    2.1286    0.0000 H       1  LIG1        0.0653
     14 H           1.3601   -1.5129    0.0000 H       1  LIG1        0.0640
     15 H           2.6061    0.2021    0.0000 H       1  LIG1        0.0807
     16 H           1.3542    1.8991    0.0000 H       1  LIG1        0.1653
@<TRIPOS>BOND
     1     1     2    2
     2     2     3   ar
     3     3     4   ar
     4     4     5   ar
     5     5     6   ar
     6     6     7   ar
     7     2     7   ar
     8     7     8   ar
     9     8     9   ar
    10     9    10   ar
    11     6    10   ar
    12     3    11    1
    13     4    12    1
    14     5    13    1
    15     8    14    1
    16     9    15    1
    17    10    16    1
