@<TRIPOS>MOLECULE
O=c1cccc2occn12
 15 16 0 0 0
SMALL
GASTEIGER
Energy = 0

@<TRIPOS>ATOM
      1 O           0.5170   -1.4612    0.0000 O.2     1  LIG1       -0.2672
      2 C           0.5170   -0.6362    0.0000 C.ar    1  LIG1        0.2580
      3 C           1.2314   -0.2237    0.0000 C.ar    1  LIG1        0.0035
      4 C           1.2314    0.6013    0.0000 C.ar    1  LIG1       -0.0516
      5 C           0.5170    1.0138    0.0000 C.ar    1  LIG1       -0.0008
      6 C          -0.1975    0.6013    0.0000 C.ar    1  LIG1        0.2075
      7 O          -0.9821    0.8562    0.0000 O.2     1  LIG1       -0.4454
      8 C          -1.4671    0.1888    0.0000 C.ar    1  LIG1        0.1109
      9 C          -0.9821   -0.4786    0.0000 C.ar    1  LIG1        0.0509
     10 N          -0.1975   -0.2237    0.0000 N.ar    1  LIG1       -0.2512
     11 H           2.1853   -0.7744    0.0000 H       1  LIG1        0.0672
     12 H           2.1853    1.1520    0.0000 H       1  LIG1        0.0621
     13 H           0.5170    2.1153    0.0000 H       1  LIG1        0.0670
     14 H          -2.5686    0.1888    0.0000 H       1  LIG1        0.1045
     15 H          -1.3224   -1.5262    0.0000 H       1  LIG1        0.0846
@<TRIPOS>BOND
     1     1     2    2
     2     2     3   ar
     3     3     4   ar
     4     4     5   ar
     5     5     6   ar
     6     6     7   ar
     7     7     8   ar
     8     8     9   ar
     9     9    10   ar
    10     2    10   ar
    11     6    10   ar
    12     3    11    1
    13     4    12    1
    14     5    13    1
    15     8    14    1
    16     9    15    1
