@<TRIPOS>MOLECULE
Cn1cc2cccnc2cc1=O
 20 21 0 0 0
SMALL
GASTEIGER
Energy = 0

@<TRIPOS>ATOM
      1 C           1.7393    0.8520    0.0000 C.3     1  LIG1        0.0147
      2 N           1.0249    0.4395    0.0000 N.ar    1  LIG1       -0.3176
      3 C           0.3104    0.8520    0.0000 C.ar    1  LIG1        0.0168
      4 C          -0.4041    0.4395    0.0000 C.ar    1  LIG1        0.0168
      5 C          -1.1185    0.8520    0.0000 C.ar    1  LIG1       -0.0497
      6 C          -1.8330    0.4395    0.0000 C.ar    1  LIG1       -0.0430
      7 C          -1.8330   -0.3855    0.0000 C.ar    1  LIG1        0.0283
      8 N          -1.1185   -0.7980    0.0000 N.ar    1  LIG1       -0.2548
      9 C          -0.4041   -0.3855    0.0000 C.ar    1  LIG1        0.0775
     10 C           0.3104   -0.7980    0.0000 C.ar    1  LIG1        0.0289
     11 C           1.0249   -0.3855    0.0000 C.ar    1  LIG1        0.2531
     12 O           1.7393   -0.7980    0.0000 O.2     1  LIG1       -0.2676
     13 H           1.5315    1.9729    0.0000 H       1  LIG1        0.0457
     14 H           2.3603    0.5657   -0.9121 H       1  LIG1        0.0457
     15 H           2.3290    0.5802    0.9370 H       1  LIG1        0.0457
     16 H           0.3104    1.9535    0.0000 H       1  LIG1        0.0816
     17 H          -1.1185    1.9535    0.0000 H       1  LIG1        0.0625
     18 H          -2.7869    0.9903    0.0000 H       1  LIG1        0.0633
     19 H          -2.7869   -0.9363    0.0000 H       1  LIG1        0.0830
     20 H           0.3104   -1.8995    0.0000 H       1  LIG1        0.0693
@<TRIPOS>BOND
     1     1     2    1
     2     2     3   ar
     3     3     4   ar
     4     4     5   ar
     5     5     6   ar
     6     6     7   ar
     7     7     8   ar
     8     8     9   ar
     9     4     9   ar
    10     9    10   ar
    11    10    11   ar
    12     2    11   ar
    13    11    12    2
    14     1    13    1
    15     1    14    1
    16     1    15    1
    17     3    16    1
    18     5    17    1
    19     6    18    1
    20     7    19    1
    21    10    20    1
