@<TRIPOS>MOLECULE
O=c1cc2[nH]cccc2cn1
 17 18 0 0 0
SMALL
GASTEIGER
Energy = 0

@<TRIPOS>ATOM
      1 O           1.8885    0.7249    0.0000 O.2     1  LIG1       -0.2658
      2 C           1.1740    0.3124    0.0000 C.ar    1  LIG1        0.2722
      3 C           0.4595    0.7249    0.0000 C.ar    1  LIG1        0.0286
      4 C          -0.2550    0.3124    0.0000 C.ar    1  LIG1        0.0531
      5 N          -0.9694    0.7249    0.0000 N.ar    1  LIG1       -0.3605
      6 C          -1.6839    0.3124    0.0000 C.ar    1  LIG1        0.0021
      7 C          -1.6839   -0.5126    0.0000 C.ar    1  LIG1       -0.0451
      8 C          -0.9694   -0.9251    0.0000 C.ar    1  LIG1       -0.0498
      9 C          -0.2550   -0.5126    0.0000 C.ar    1  LIG1        0.0167
     10 C           0.4595   -0.9251    0.0000 C.ar    1  LIG1        0.0406
     11 N           1.1740   -0.5126    0.0000 N.ar    1  LIG1       -0.2168
     12 H           0.4595    1.8264    0.0000 H       1  LIG1        0.0693
     13 H          -0.9694    1.8074    0.0000 H       1  LIG1        0.1653
     14 H          -2.6378    0.8632    0.0000 H       1  LIG1        0.0807
     15 H          -2.6378   -1.0634    0.0000 H       1  LIG1        0.0632
     16 H          -0.9694   -2.0266    0.0000 H       1  LIG1        0.0625
     17 H           0.4595   -2.0266    0.0000 H       1  LIG1        0.0837
@<TRIPOS>BOND
     1     1     2    2
     2     2     3   ar
     3     3     4   ar
     4     4     5   ar
     5     5     6   ar
     6     6     7   ar
     7     7     8   ar
     8     8     9   ar
     9     4     9   ar
    10     9    10   ar
    11    10    11   ar
    12     2    11   ar
    13     3    12    1
    14     5    13    1
    15     6    14    1
    16     7    15    1
    17     8    16    1
    18    10    17    1
