@<TRIPOS>MOLECULE
c1nnc2nnccn12
 12 13 0 0 0
SMALL
GASTEIGER
Energy = 0

@<TRIPOS>ATOM
      1 C           1.2801    0.4377    0.0000 C.ar    1  LIG1        0.0666
      2 C           0.5657    0.8502    0.0000 C.ar    1  LIG1        0.0339
      3 N          -0.1488    0.4377    0.0000 N.ar    1  LIG1       -0.2705
      4 C          -0.9334    0.6927    0.0000 C.ar    1  LIG1        0.1254
      5 N          -1.4183    0.0252    0.0000 N.ar    1  LIG1       -0.1356
      6 N          -0.9334   -0.6422    0.0000 N.ar    1  LIG1       -0.1071
      7 C          -0.1488   -0.3873    0.0000 C.ar    1  LIG1        0.2741
      8 N           0.5657   -0.7998    0.0000 N.ar    1  LIG1       -0.1085
      9 N           1.2801   -0.3873    0.0000 N.ar    1  LIG1       -0.1527
     10 H           2.2340    0.9884    0.0000 H       1  LIG1        0.0863
     11 H           0.5657    1.9517    0.0000 H       1  LIG1        0.0830
     12 H          -1.2738    1.7403    0.0000 H       1  LIG1        0.1052
@<TRIPOS>BOND
     1     1     2   ar
     2     2     3   ar
     3     3     4   ar
     4     4     5   ar
     5     5     6   ar
     6     6     7   ar
     7     3     7   ar
     8     7     8   ar
     9     8     9   ar
    10     1     9   ar
    11     1    10    1
    12     2    11    1
    13     4    12    1
