@<TRIPOS>MOLECULE
Cn1cnc(=O)nc1
 13 13 0 0 0
SMALL
GASTEIGER
Energy = 0

@<TRIPOS>ATOM
      1 C          -0.0000   -1.7121    0.0000 C.3     1  LIG1        0.0140
      2 N          -0.0000   -0.8871    0.0000 N.ar    1  LIG1       -0.3256
      3 C           0.7145   -0.4746    0.0000 C.ar    1  LIG1        0.1022
      4 N           0.7145    0.3504    0.0000 N.ar    1  LIG1       -0.1818
      5 C           0.0000    0.7629    0.0000 C.ar    1  LIG1        0.3703
      6 O           0.0000    1.5879    0.0000 O.2     1  LIG1       -0.2425
      7 N          -0.7145    0.3504    0.0000 N.ar    1  LIG1       -0.1818
      8 C          -0.7145   -0.4746    0.0000 C.ar    1  LIG1        0.1022
      9 H           1.0746   -2.0926    0.0000 H       1  LIG1        0.0456
     10 H          -0.5585   -2.1068   -0.9121 H       1  LIG1        0.0456
     11 H          -0.5302   -2.0868    0.9370 H       1  LIG1        0.0456
     12 H           1.6684   -1.0254    0.0000 H       1  LIG1        0.1031
     13 H          -1.6684   -1.0254    0.0000 H       1  LIG1        0.1031
@<TRIPOS>BOND
     1     1     2    1
     2     2     3   ar
     3     3     4   ar
     4     4     5   ar
     5     5     6    2
     6     5     7   ar
     7     7     8   ar
     8     2     8   ar
     9     1     9    1
    10     1    10    1
    11     1    11    1
    12     3    12    1
    13     8    13    1
