@<TRIPOS>MOLECULE
Cn1ncc2occc12
 15 16 0 0 0
SMALL
GASTEIGER
Energy = 0

@<TRIPOS>ATOM
      1 C           0.9236   -1.3133    0.0000 C.3     1  LIG1        0.0310
      2 N           0.6687   -0.5286    0.0000 N.ar    1  LIG1       -0.2636
      3 N           1.1536    0.1388    0.0000 N.ar    1  LIG1       -0.1756
      4 C           0.6687    0.8062    0.0000 C.ar    1  LIG1        0.0922
      5 C          -0.1159    0.5513    0.0000 C.ar    1  LIG1        0.1721
      6 C          -0.1159   -0.2737    0.0000 C.ar    1  LIG1        0.1065
      7 C          -0.9005   -0.5286    0.0000 C.ar    1  LIG1        0.0019
      8 C          -1.3855    0.1388    0.0000 C.ar    1  LIG1        0.0947
      9 O          -0.9005    0.8062    0.0000 O.2     1  LIG1       -0.4598
     10 H           2.0632   -1.3432    0.0000 H       1  LIG1        0.0473
     11 H           0.5144   -1.8612   -0.9121 H       1  LIG1        0.0473
     12 H           0.5351   -1.8335    0.9370 H       1  LIG1        0.0473
     13 H           1.0091    1.8538    0.0000 H       1  LIG1        0.0886
     14 H          -1.2408   -1.5762    0.0000 H       1  LIG1        0.0670
     15 H          -2.4870    0.1388    0.0000 H       1  LIG1        0.1030
@<TRIPOS>BOND
     1     1     2    1
     2     2     3   ar
     3     3     4   ar
     4     4     5   ar
     5     5     6   ar
     6     2     6   ar
     7     6     7   ar
     8     7     8   ar
     9     8     9   ar
    10     5     9   ar
    11     1    10    1
    12     1    11    1
    13     1    12    1
    14     4    13    1
    15     7    14    1
    16     8    15    1
