@<TRIPOS>MOLECULE
Cn1c(=O)ncc2ccnnc12
 18 19 0 0 0
SMALL
GASTEIGER
Energy = 0

@<TRIPOS>ATOM
      1 C           0.4398   -1.4174    0.0000 C.3     1  LIG1        0.0182
      2 N           0.4398   -0.5924    0.0000 N.ar    1  LIG1       -0.2782
      3 C           1.1543   -0.1799    0.0000 C.ar    1  LIG1        0.3497
      4 O           1.8688   -0.5924    0.0000 O.2     1  LIG1       -0.2445
      5 N           1.1543    0.6451    0.0000 N.ar    1  LIG1       -0.2006
      6 C           0.4398    1.0576    0.0000 C.ar    1  LIG1        0.0437
      7 C          -0.2747    0.6451    0.0000 C.ar    1  LIG1        0.0390
      8 C          -0.9891    1.0576    0.0000 C.ar    1  LIG1       -0.0297
      9 C          -1.7036    0.6451    0.0000 C.ar    1  LIG1        0.0507
     10 N          -1.7036   -0.1799    0.0000 N.ar    1  LIG1       -0.1557
     11 N          -0.9891   -0.5924    0.0000 N.ar    1  LIG1       -0.1307
     12 C          -0.2747   -0.1799    0.0000 C.ar    1  LIG1        0.1680
     13 H           1.5144   -1.7979    0.0000 H       1  LIG1        0.0458
     14 H          -0.1187   -1.8121   -0.9121 H       1  LIG1        0.0458
     15 H          -0.0904   -1.7921    0.9370 H       1  LIG1        0.0458
     16 H           0.4398    2.1591    0.0000 H       1  LIG1        0.0838
     17 H          -0.9891    2.1591    0.0000 H       1  LIG1        0.0641
     18 H          -2.6575    1.1959    0.0000 H       1  LIG1        0.0848
@<TRIPOS>BOND
     1     1     2    1
     2     2     3   ar
     3     3     4    2
     4     3     5   ar
     5     5     6   ar
     6     6     7   ar
     7     7     8   ar
     8     8     9   ar
     9     9    10   ar
    10    10    11   ar
    11    11    12   ar
    12     2    12   ar
    13     7    12   ar
    14     1    13    1
    15     1    14    1
    16     1    15    1
    17     6    16    1
    18     8    17    1
    19     9    18    1
