@<TRIPOS>MOLECULE
Cn1cnc2c[nH]cc2c1=O
 18 19 0 0 0
SMALL
GASTEIGER
Energy = 0

@<TRIPOS>ATOM
      1 C           1.7471   -0.5753    0.0000 C.3     1  LIG1        0.0161
      2 N           1.0326   -0.1628    0.0000 N.ar    1  LIG1       -0.3018
      3 C           1.0326    0.6622    0.0000 C.ar    1  LIG1        0.0990
      4 N           0.3182    1.0747    0.0000 N.ar    1  LIG1       -0.2355
      5 C          -0.3963    0.6622    0.0000 C.ar    1  LIG1        0.0951
      6 C          -1.1809    0.9172    0.0000 C.ar    1  LIG1        0.0282
      7 N          -1.6658    0.2497    0.0000 N.ar    1  LIG1       -0.3645
      8 C          -1.1809   -0.4177    0.0000 C.ar    1  LIG1        0.0162
      9 C          -0.3963   -0.1628    0.0000 C.ar    1  LIG1        0.0821
     10 C           0.3182   -0.5753    0.0000 C.ar    1  LIG1        0.2628
     11 O           0.3182   -1.4003    0.0000 O.2     1  LIG1       -0.2669
     12 H           2.6139    0.1651    0.0000 H       1  LIG1        0.0457
     13 H           1.8097   -1.2563   -0.9121 H       1  LIG1        0.0457
     14 H           1.8065   -1.2219    0.9370 H       1  LIG1        0.0457
     15 H           1.9865    1.2129    0.0000 H       1  LIG1        0.1030
     16 H          -1.5213    1.9648    0.0000 H       1  LIG1        0.0829
     17 H          -2.7483    0.2497    0.0000 H       1  LIG1        0.1648
     18 H          -1.5213   -1.4653    0.0000 H       1  LIG1        0.0815
@<TRIPOS>BOND
     1     1     2    1
     2     2     3   ar
     3     3     4   ar
     4     4     5   ar
     5     5     6   ar
     6     6     7   ar
     7     7     8   ar
     8     8     9   ar
     9     5     9   ar
    10     9    10   ar
    11     2    10   ar
    12    10    11    2
    13     1    12    1
    14     1    13    1
    15     1    14    1
    16     3    15    1
    17     6    16    1
    18     7    17    1
    19     8    18    1
