@<TRIPOS>MOLECULE
O=c1ccc2nnccc2[nH]1
 16 17 0 0 0
SMALL
GASTEIGER
Energy = 0

@<TRIPOS>ATOM
      1 O           1.9221    0.7379    0.0000 O.2     1  LIG1       -0.2679
      2 C           1.2077    0.3254    0.0000 C.ar    1  LIG1        0.2493
      3 N           0.4932    0.7379    0.0000 N.ar    1  LIG1       -0.3208
      4 C          -0.2213    0.3254    0.0000 C.ar    1  LIG1        0.0709
      5 C          -0.9357    0.7379    0.0000 C.ar    1  LIG1       -0.0163
      6 C          -1.6502    0.3254    0.0000 C.ar    1  LIG1        0.0519
      7 N          -1.6502   -0.4996    0.0000 N.ar    1  LIG1       -0.1570
      8 N          -0.9357   -0.9121    0.0000 N.ar    1  LIG1       -0.1478
      9 C          -0.2213   -0.4996    0.0000 C.ar    1  LIG1        0.1096
     10 C           0.4932   -0.9121    0.0000 C.ar    1  LIG1       -0.0274
     11 C           1.2077   -0.4996    0.0000 C.ar    1  LIG1        0.0049
     12 H           0.4932    1.8204    0.0000 H       1  LIG1        0.1690
     13 H          -0.9357    1.8394    0.0000 H       1  LIG1        0.0654
     14 H          -2.6041    0.8762    0.0000 H       1  LIG1        0.0848
     15 H           0.4932   -2.0136    0.0000 H       1  LIG1        0.0642
     16 H           2.1616   -1.0504    0.0000 H       1  LIG1        0.0672
@<TRIPOS>BOND
     1     1     2    2
     2     2     3   ar
     3     3     4   ar
     4     4     5   ar
     5     5     6   ar
     6     6     7   ar
     7     7     8   ar
     8     8     9   ar
     9     4     9   ar
    10     9    10   ar
    11    10    11   ar
    12     2    11   ar
    13     3    12    1
    14     5    13    1
    15     6    14    1
    16    10    15    1
    17    11    16    1
