@<TRIPOS>MOLECULE
Cn1cnc2nocc2c1=O
 16 17 0 0 0
SMALL
GASTEIGER
Energy = 0

@<TRIPOS>ATOM
      1 C           1.7860   -0.5912    0.0000 C.3     1  LIG1        0.0161
      2 N           1.0715   -0.1787    0.0000 N.ar    1  LIG1       -0.3017
      3 C           1.0715    0.6463    0.0000 C.ar    1  LIG1        0.1008
      4 N           0.3570    1.0588    0.0000 N.ar    1  LIG1       -0.2147
      5 C          -0.3574    0.6463    0.0000 C.ar    1  LIG1        0.2087
      6 N          -1.1421    0.9012    0.0000 N.ar    1  LIG1       -0.0580
      7 O          -1.6270    0.2338    0.0000 O.2     1  LIG1       -0.3601
      8 C          -1.1421   -0.4337    0.0000 C.ar    1  LIG1        0.1388
      9 C          -0.3574   -0.1787    0.0000 C.ar    1  LIG1        0.1240
     10 C           0.3570   -0.5912    0.0000 C.ar    1  LIG1        0.2661
     11 O           0.3570   -1.4162    0.0000 O.2     1  LIG1       -0.2668
     12 H           2.6528    0.1492    0.0000 H       1  LIG1        0.0457
     13 H           1.8486   -1.2722   -0.9121 H       1  LIG1        0.0457
     14 H           1.8454   -1.2378    0.9370 H       1  LIG1        0.0457
     15 H           2.0254    1.1971    0.0000 H       1  LIG1        0.1030
     16 H          -1.4825   -1.4813    0.0000 H       1  LIG1        0.1066
@<TRIPOS>BOND
     1     1     2    1
     2     2     3   ar
     3     3     4   ar
     4     4     5   ar
     5     5     6   ar
     6     6     7   ar
     7     7     8   ar
     8     8     9   ar
     9     5     9   ar
    10     9    10   ar
    11     2    10   ar
    12    10    11    2
    13     1    12    1
    14     1    13    1
    15     1    14    1
    16     3    15    1
    17     8    16    1
