@<TRIPOS>MOLECULE
O=c1nc2ncncn2o1
 12 13 0 0 0
SMALL
GASTEIGER
Energy = 0

@<TRIPOS>ATOM
      1 O           1.9730   -0.0098    0.0000 O.2     1  LIG1       -0.2187
      2 C           1.1480   -0.0098    0.0000 C.ar    1  LIG1        0.4625
      3 O           0.6631    0.6577    0.0000 O.2     1  LIG1       -0.3102
      4 N          -0.1215    0.4027    0.0000 N.ar    1  LIG1       -0.1228
      5 C          -0.8360    0.8152    0.0000 C.ar    1  LIG1        0.1387
      6 N          -1.5505    0.4027    0.0000 N.ar    1  LIG1       -0.2225
      7 C          -1.5505   -0.4223    0.0000 C.ar    1  LIG1        0.1216
      8 N          -0.8360   -0.8348    0.0000 N.ar    1  LIG1       -0.1981
      9 C          -0.1215   -0.4223    0.0000 C.ar    1  LIG1        0.2730
     10 N           0.6631   -0.6772    0.0000 N.ar    1  LIG1       -0.1346
     11 H          -0.8360    1.9167    0.0000 H       1  LIG1        0.1064
     12 H          -2.5044   -0.9731    0.0000 H       1  LIG1        0.1048
@<TRIPOS>BOND
     1     1     2    2
     2     2     3   ar
     3     3     4   ar
     4     4     5   ar
     5     5     6   ar
     6     6     7   ar
     7     7     8   ar
     8     8     9   ar
     9     4     9   ar
    10     9    10   ar
    11     2    10   ar
    12     5    11    1
    13     7    12    1
