@<TRIPOS>MOLECULE
c1cc2nnccn2c1
 14 15 0 0 0
SMALL
GASTEIGER
Energy = 0

@<TRIPOS>ATOM
      1 C           1.4595    0.0144    0.0000 C.ar    1  LIG1       -0.0417
      2 C           0.9746    0.6819    0.0000 C.ar    1  LIG1        0.0113
      3 N           0.1899    0.4269    0.0000 N.ar    1  LIG1       -0.3052
      4 C          -0.5245    0.8394    0.0000 C.ar    1  LIG1        0.0310
      5 C          -1.2390    0.4269    0.0000 C.ar    1  LIG1        0.0665
      6 N          -1.2390   -0.3981    0.0000 N.ar    1  LIG1       -0.1542
      7 N          -0.5245   -0.8106    0.0000 N.ar    1  LIG1       -0.1311
      8 C           0.1899   -0.3981    0.0000 C.ar    1  LIG1        0.1597
      9 C           0.9746   -0.6530    0.0000 C.ar    1  LIG1       -0.0157
     10 H           2.5610    0.0144    0.0000 H       1  LIG1        0.0633
     11 H           1.3150    1.7295    0.0000 H       1  LIG1        0.0813
     12 H          -0.5245    1.9409    0.0000 H       1  LIG1        0.0829
     13 H          -2.1929    0.9777    0.0000 H       1  LIG1        0.0863
     14 H           1.3150   -1.7006    0.0000 H       1  LIG1        0.0655
@<TRIPOS>BOND
     1     1     2   ar
     2     2     3   ar
     3     3     4   ar
     4     4     5   ar
     5     5     6   ar
     6     6     7   ar
     7     7     8   ar
     8     3     8   ar
     9     8     9   ar
    10     1     9   ar
    11     1    10    1
    12     2    11    1
    13     4    12    1
    14     5    13    1
    15     9    14    1
