@<TRIPOS>MOLECULE
Cn1cc2[nH]c(=O)[nH]c(=O)c2c1
 19 20 0 0 0
SMALL
GASTEIGER
Energy = 0

@<TRIPOS>ATOM
      1 C           2.3457    0.0783    0.0000 C.3     1  LIG1        0.0114
      2 N           1.5207    0.0783    0.0000 N.ar    1  LIG1       -0.3535
      3 C           1.0358    0.7457    0.0000 C.ar    1  LIG1        0.0285
      4 C           0.2511    0.4908    0.0000 C.ar    1  LIG1        0.0732
      5 N          -0.4633    0.9033    0.0000 N.ar    1  LIG1       -0.3059
      6 C          -1.1778    0.4908    0.0000 C.ar    1  LIG1        0.3272
      7 O          -1.8923    0.9033    0.0000 O.2     1  LIG1       -0.2467
      8 N          -1.1778   -0.3342    0.0000 N.ar    1  LIG1       -0.2745
      9 C          -0.4633   -0.7467    0.0000 C.ar    1  LIG1        0.2631
     10 O          -0.4633   -1.5717    0.0000 O.2     1  LIG1       -0.2670
     11 C           0.2511   -0.3342    0.0000 C.ar    1  LIG1        0.0802
     12 C           1.0358   -0.5892    0.0000 C.ar    1  LIG1        0.0187
     13 H           2.7262    1.1529    0.0000 H       1  LIG1        0.0455
     14 H           2.7404   -0.4802   -0.9121 H       1  LIG1        0.0455
     15 H           2.7204   -0.4519    0.9370 H       1  LIG1        0.0455
     16 H           1.3762    1.7933    0.0000 H       1  LIG1        0.0830
     17 H          -0.4633    1.9858    0.0000 H       1  LIG1        0.1704
     18 H          -2.1153   -0.8755    0.0000 H       1  LIG1        0.1734
     19 H           1.3762   -1.6368    0.0000 H       1  LIG1        0.0817
@<TRIPOS>BOND
     1     1     2    1
     2     2     3   ar
     3     3     4   ar
     4     4     5   ar
     5     5     6   ar
     6     6     7    2
     7     6     8   ar
     8     8     9   ar
     9     9    10    2
    10     9    11   ar
    11     4    11   ar
    12    11    12   ar
    13     2    12   ar
    14     1    13    1
    15     1    14    1
    16     1    15    1
    17     3    16    1
    18     5    17    1
    19     8    18    1
    20    12    19    1
