@<TRIPOS>MOLECULE
O=c1occo1
 8 8 0 0 0
SMALL
GASTEIGER
Energy = 0

@<TRIPOS>ATOM
      1 O          -1.2155   -0.0000    0.0000 O.2     1  LIG1       -0.2021
      2 C          -0.3905   -0.0000    0.0000 C.ar    1  LIG1        0.5201
      3 O           0.0944   -0.6674    0.0000 O.2     1  LIG1       -0.3993
      4 C           0.8790   -0.4125    0.0000 C.ar    1  LIG1        0.1340
      5 C           0.8790    0.4125    0.0000 C.ar    1  LIG1        0.1340
      6 O           0.0944    0.6674    0.0000 O.2     1  LIG1       -0.3993
      7 H           1.7701   -1.0600    0.0000 H       1  LIG1        0.1063
      8 H           1.7701    1.0600    0.0000 H       1  LIG1        0.1063
@<TRIPOS>BOND
     1     1     2    2
     2     2     3   ar
     3     3     4   ar
     4     4     5   ar
     5     5     6   ar
     6     2     6   ar
     7     4     7    1
     8     5     8    1
