@<TRIPOS>MOLECULE
c1cnc2[nH]nnc2n1
 12 13 0 0 0
SMALL
GASTEIGER
Energy = 0

@<TRIPOS>ATOM
      1 N           0.9081   -0.6674    0.0000 N.ar    1  LIG1       -0.2390
      2 N           1.3930    0.0000    0.0000 N.ar    1  LIG1       -0.0645
      3 N           0.9081    0.6674    0.0000 N.ar    1  LIG1       -0.1078
      4 C           0.1235    0.4125    0.0000 C.ar    1  LIG1        0.2203
      5 N          -0.5910    0.8250    0.0000 N.ar    1  LIG1       -0.2301
      6 C          -1.3055    0.4125    0.0000 C.ar    1  LIG1        0.0482
      7 C          -1.3055   -0.4125    0.0000 C.ar    1  LIG1        0.0482
      8 N          -0.5910   -0.8250    0.0000 N.ar    1  LIG1       -0.2319
      9 C           0.1235   -0.4125    0.0000 C.ar    1  LIG1        0.1952
     10 H           1.2426   -1.6969    0.0000 H       1  LIG1        0.1923
     11 H          -2.2594    0.9633    0.0000 H       1  LIG1        0.0846
     12 H          -2.2594   -0.9633    0.0000 H       1  LIG1        0.0846
@<TRIPOS>BOND
     1     1     2   ar
     2     2     3   ar
     3     3     4   ar
     4     4     5   ar
     5     5     6   ar
     6     6     7   ar
     7     7     8   ar
     8     8     9   ar
     9     1     9   ar
    10     4     9   ar
    11     1    10    1
    12     6    11    1
    13     7    12    1
