@<TRIPOS>MOLECULE
O=c1ccn2[nH]ncc2n1
 14 15 0 0 0
SMALL
GASTEIGER
Energy = 0

@<TRIPOS>ATOM
      1 O           1.7723   -0.7289    0.0000 O.2     1  LIG1       -0.2658
      2 C           1.0579   -0.3164    0.0000 C.ar    1  LIG1        0.2736
      3 C           1.0579    0.5086    0.0000 C.ar    1  LIG1        0.0229
      4 C           0.3434    0.9211    0.0000 C.ar    1  LIG1        0.0361
      5 N          -0.3711    0.5086    0.0000 N.ar    1  LIG1       -0.2267
      6 N          -1.1557    0.7635    0.0000 N.ar    1  LIG1       -0.2113
      7 N          -1.6406    0.0961    0.0000 N.ar    1  LIG1       -0.1624
      8 C          -1.1557   -0.5714    0.0000 C.ar    1  LIG1        0.0934
      9 C          -0.3711   -0.3164    0.0000 C.ar    1  LIG1        0.1770
     10 N           0.3434   -0.7289    0.0000 N.ar    1  LIG1       -0.1883
     11 H           2.0118    1.0594    0.0000 H       1  LIG1        0.0687
     12 H           0.3434    2.0226    0.0000 H       1  LIG1        0.0832
     13 H          -1.4902    1.7930    0.0000 H       1  LIG1        0.2109
     14 H          -1.4961   -1.6190    0.0000 H       1  LIG1        0.0886
@<TRIPOS>BOND
     1     1     2    2
     2     2     3   ar
     3     3     4   ar
     4     4     5   ar
     5     5     6   ar
     6     6     7   ar
     7     7     8   ar
     8     8     9   ar
     9     5     9   ar
    10     9    10   ar
    11     2    10   ar
    12     3    11    1
    13     4    12    1
    14     6    13    1
    15     8    14    1
