@<TRIPOS>MOLECULE
c1nc2cncnc2o1
 12 13 0 0 0
SMALL
GASTEIGER
Energy = 0

@<TRIPOS>ATOM
      1 O           0.9284   -0.6492    0.0000 O.2     1  LIG1       -0.4243
      2 C           1.4133    0.0182    0.0000 C.ar    1  LIG1        0.1851
      3 N           0.9284    0.6857    0.0000 N.ar    1  LIG1       -0.2129
      4 C           0.1438    0.4307    0.0000 C.ar    1  LIG1        0.1469
      5 C          -0.5707    0.8432    0.0000 C.ar    1  LIG1        0.0600
      6 N          -1.2852    0.4307    0.0000 N.ar    1  LIG1       -0.2413
      7 C          -1.2852   -0.3943    0.0000 C.ar    1  LIG1        0.1199
      8 N          -0.5707   -0.8068    0.0000 N.ar    1  LIG1       -0.1993
      9 C           0.1438   -0.3943    0.0000 C.ar    1  LIG1        0.2503
     10 H           2.5148    0.0182    0.0000 H       1  LIG1        0.1256
     11 H          -0.5707    1.9447    0.0000 H       1  LIG1        0.0853
     12 H          -2.2391   -0.9451    0.0000 H       1  LIG1        0.1048
@<TRIPOS>BOND
     1     1     2   ar
     2     2     3   ar
     3     3     4   ar
     4     4     5   ar
     5     5     6   ar
     6     6     7   ar
     7     7     8   ar
     8     8     9   ar
     9     1     9   ar
    10     4     9   ar
    11     2    10    1
    12     5    11    1
    13     7    12    1
