@<TRIPOS>MOLECULE
Cn1cnc2nccnc2c1=O
 18 19 0 0 0
SMALL
GASTEIGER
Energy = 0

@<TRIPOS>ATOM
      1 C           1.8961   -0.5977    0.0000 C.3     1  LIG1        0.0161
      2 N           1.1817   -0.1852    0.0000 N.ar    1  LIG1       -0.3005
      3 C           1.1817    0.6398    0.0000 C.ar    1  LIG1        0.1008
      4 N           0.4672    1.0523    0.0000 N.ar    1  LIG1       -0.2161
      5 C          -0.2473    0.6398    0.0000 C.ar    1  LIG1        0.1852
      6 N          -0.9618    1.0523    0.0000 N.ar    1  LIG1       -0.2327
      7 C          -1.6762    0.6398    0.0000 C.ar    1  LIG1        0.0481
      8 C          -1.6762   -0.1852    0.0000 C.ar    1  LIG1        0.0467
      9 N          -0.9618   -0.5977    0.0000 N.ar    1  LIG1       -0.2451
     10 C          -0.2473   -0.1852    0.0000 C.ar    1  LIG1        0.1722
     11 C           0.4672   -0.5977    0.0000 C.ar    1  LIG1        0.2813
     12 O           0.4672   -1.4227    0.0000 O.2     1  LIG1       -0.2652
     13 H           2.7630    0.1426    0.0000 H       1  LIG1        0.0457
     14 H           1.9586   -1.2787   -0.9121 H       1  LIG1        0.0457
     15 H           1.9555   -1.2443    0.9370 H       1  LIG1        0.0457
     16 H           2.1356    1.1906    0.0000 H       1  LIG1        0.1030
     17 H          -2.6301    1.1905    0.0000 H       1  LIG1        0.0846
     18 H          -2.6301   -0.7359    0.0000 H       1  LIG1        0.0845
@<TRIPOS>BOND
     1     1     2    1
     2     2     3   ar
     3     3     4   ar
     4     4     5   ar
     5     5     6   ar
     6     6     7   ar
     7     7     8   ar
     8     8     9   ar
     9     9    10   ar
    10     5    10   ar
    11    10    11   ar
    12     2    11   ar
    13    11    12    2
    14     1    13    1
    15     1    14    1
    16     1    15    1
    17     3    16    1
    18     7    17    1
    19     8    18    1
