@<TRIPOS>MOLECULE
O=c1[nH]nc2sccn12
 12 13 0 0 0
SMALL
GASTEIGER
Energy = 0

@<TRIPOS>ATOM
      1 O           1.0034   -1.3845    0.0000 O.2     1  LIG1       -0.2446
      2 C           0.7484   -0.5998    0.0000 C.ar    1  LIG1        0.3489
      3 N           1.2334    0.0676    0.0000 N.ar    1  LIG1       -0.2255
      4 N           0.7484    0.7350    0.0000 N.ar    1  LIG1       -0.1439
      5 C          -0.0362    0.4801    0.0000 C.ar    1  LIG1        0.2003
      6 S          -0.8208    0.7350    0.0000 S.2     1  LIG1       -0.0560
      7 C          -1.3057    0.0676    0.0000 C.ar    1  LIG1       -0.0042
      8 C          -0.8208   -0.5998    0.0000 C.ar    1  LIG1        0.0232
      9 N          -0.0362   -0.3449    0.0000 N.ar    1  LIG1       -0.2448
     10 H           2.3159    0.0676    0.0000 H       1  LIG1        0.1937
     11 H          -2.4072    0.0676    0.0000 H       1  LIG1        0.0709
     12 H          -1.1612   -1.6474    0.0000 H       1  LIG1        0.0820
@<TRIPOS>BOND
     1     1     2    2
     2     2     3   ar
     3     3     4   ar
     4     4     5   ar
     5     5     6   ar
     6     6     7   ar
     7     7     8   ar
     8     8     9   ar
     9     2     9   ar
    10     5     9   ar
    11     3    10    1
    12     7    11    1
    13     8    12    1
