@<TRIPOS>MOLECULE
O=c1cc2nc[nH]c(=O)c2c[nH]1
 17 18 0 0 0
SMALL
GASTEIGER
Energy = 0

@<TRIPOS>ATOM
      1 O           2.0078   -0.9085    0.0000 O.2     1  LIG1       -0.2678
      2 C           1.2934   -0.4960    0.0000 C.ar    1  LIG1        0.2508
      3 N           1.2934    0.3290    0.0000 N.ar    1  LIG1       -0.3282
      4 C           0.5789    0.7415    0.0000 C.ar    1  LIG1        0.0193
      5 C          -0.1356    0.3290    0.0000 C.ar    1  LIG1        0.0808
      6 C          -0.8501    0.7415    0.0000 C.ar    1  LIG1        0.2604
      7 O          -0.8501    1.5665    0.0000 O.2     1  LIG1       -0.2671
      8 N          -1.5645    0.3290    0.0000 N.ar    1  LIG1       -0.3129
      9 C          -1.5645   -0.4960    0.0000 C.ar    1  LIG1        0.0966
     10 N          -0.8501   -0.9085    0.0000 N.ar    1  LIG1       -0.2369
     11 C          -0.1356   -0.4960    0.0000 C.ar    1  LIG1        0.0843
     12 C           0.5789   -0.9085    0.0000 C.ar    1  LIG1        0.0289
     13 H           2.2309    0.8703    0.0000 H       1  LIG1        0.1683
     14 H           0.5789    1.8430    0.0000 H       1  LIG1        0.0816
     15 H          -2.5020    0.8702    0.0000 H       1  LIG1        0.1698
     16 H          -2.5184   -1.0467    0.0000 H       1  LIG1        0.1028
     17 H           0.5789   -2.0100    0.0000 H       1  LIG1        0.0693
@<TRIPOS>BOND
     1     1     2    2
     2     2     3   ar
     3     3     4   ar
     4     4     5   ar
     5     5     6   ar
     6     6     7    2
     7     6     8   ar
     8     8     9   ar
     9     9    10   ar
    10    10    11   ar
    11     5    11   ar
    12    11    12   ar
    13     2    12   ar
    14     3    13    1
    15     4    14    1
    16     8    15    1
    17     9    16    1
    18    12    17    1
