@<TRIPOS>MOLECULE
O=c1[nH][nH]c2nccc(=O)n12
 15 16 0 0 0
SMALL
GASTEIGER
Energy = 0

@<TRIPOS>ATOM
      1 O           1.1038   -1.1315    0.0000 O.2     1  LIG1       -0.2445
      2 C           0.8489   -0.3468    0.0000 C.ar    1  LIG1        0.3507
      3 N           1.3338    0.3206    0.0000 N.ar    1  LIG1       -0.2480
      4 N           0.8489    0.9880    0.0000 N.ar    1  LIG1       -0.2647
      5 C           0.0643    0.7331    0.0000 C.ar    1  LIG1        0.2342
      6 N          -0.6502    1.1456    0.0000 N.ar    1  LIG1       -0.2204
      7 C          -1.3647    0.7331    0.0000 C.ar    1  LIG1        0.0365
      8 C          -1.3647   -0.0919    0.0000 C.ar    1  LIG1        0.0217
      9 C          -0.6502   -0.5044    0.0000 C.ar    1  LIG1        0.2634
     10 O          -0.6502   -1.3294    0.0000 O.2     1  LIG1       -0.2671
     11 N           0.0643   -0.0919    0.0000 N.ar    1  LIG1       -0.1952
     12 H           2.4163    0.3206    0.0000 H       1  LIG1        0.1915
     13 H           1.1834    2.0175    0.0000 H       1  LIG1        0.1899
     14 H          -2.3186    1.2839    0.0000 H       1  LIG1        0.0832
     15 H          -2.3186   -0.6427    0.0000 H       1  LIG1        0.0687
@<TRIPOS>BOND
     1     1     2    2
     2     2     3   ar
     3     3     4   ar
     4     4     5   ar
     5     5     6   ar
     6     6     7   ar
     7     7     8   ar
     8     8     9   ar
     9     9    10    2
    10     9    11   ar
    11     2    11   ar
    12     5    11   ar
    13     3    12    1
    14     4    13    1
    15     7    14    1
    16     8    15    1
