@<TRIPOS>MOLECULE
c1cn[nH]n1
 8 8 0 0 0
SMALL
GASTEIGER
Energy = 0

@<TRIPOS>ATOM
      1 N          -0.2063   -0.6348    0.0000 N.ar    1  LIG1       -0.1967
      2 N           0.5784   -0.3799    0.0000 N.ar    1  LIG1       -0.1633
      3 C           0.5784    0.4451    0.0000 C.ar    1  LIG1        0.0691
      4 C          -0.2063    0.7001    0.0000 C.ar    1  LIG1        0.0691
      5 N          -0.6912    0.0326    0.0000 N.ar    1  LIG1       -0.1633
      6 H          -0.5408   -1.6643    0.0000 H       1  LIG1        0.2125
      7 H           1.4695    1.0925    0.0000 H       1  LIG1        0.0864
      8 H          -0.5467    1.7477    0.0000 H       1  LIG1        0.0864
@<TRIPOS>BOND
     1     1     2   ar
     2     2     3   ar
     3     3     4   ar
     4     4     5   ar
     5     1     5   ar
     6     1     6    1
     7     3     7    1
     8     4     8    1
