@<TRIPOS>MOLECULE
Cn1ccc(=O)c2ccoc12
 18 19 0 0 0
SMALL
GASTEIGER
Energy = 0

@<TRIPOS>ATOM
      1 C          -0.4632   -1.6660    0.0000 C.3     1  LIG1        0.0146
      2 N          -0.4632   -0.8410    0.0000 N.ar    1  LIG1       -0.3209
      3 C          -1.1777   -0.4285    0.0000 C.ar    1  LIG1        0.0111
      4 C          -1.1777    0.3965    0.0000 C.ar    1  LIG1        0.0021
      5 C          -0.4632    0.8090    0.0000 C.ar    1  LIG1        0.1926
      6 O          -0.4632    1.6340    0.0000 O.2     1  LIG1       -0.2870
      7 C           0.2513    0.3965    0.0000 C.ar    1  LIG1        0.0846
      8 C           0.2513   -0.4285    0.0000 C.ar    1  LIG1        0.2114
      9 O           1.0359   -0.6834    0.0000 O.2     1  LIG1       -0.4465
     10 C           1.5208   -0.0160    0.0000 C.ar    1  LIG1        0.0951
     11 C           1.0359    0.6514    0.0000 C.ar    1  LIG1       -0.0108
     12 H          -1.5378   -2.0465    0.0000 H       1  LIG1        0.0457
     13 H           0.0953   -2.0607    0.9121 H       1  LIG1        0.0457
     14 H           0.0670   -2.0407   -0.9370 H       1  LIG1        0.0457
     15 H          -2.1316   -0.9793    0.0000 H       1  LIG1        0.0811
     16 H          -2.1316    0.9473    0.0000 H       1  LIG1        0.0670
     17 H           2.6223   -0.0160    0.0000 H       1  LIG1        0.1030
     18 H           1.3763    1.6990    0.0000 H       1  LIG1        0.0657
@<TRIPOS>BOND
     1     1     2    1
     2     2     3   ar
     3     3     4   ar
     4     4     5   ar
     5     5     6    2
     6     5     7   ar
     7     7     8   ar
     8     2     8   ar
     9     8     9   ar
    10     9    10   ar
    11    10    11   ar
    12     7    11   ar
    13     1    12    1
    14     1    13    1
    15     1    14    1
    16     3    15    1
    17     4    16    1
    18    10    17    1
    19    11    18    1
