@<TRIPOS>MOLECULE
O=c1ncc2cnccc2[nH]1
 16 17 0 0 0
SMALL
GASTEIGER
Energy = 0

@<TRIPOS>ATOM
      1 O           1.8920    0.7321    0.0000 O.2     1  LIG1       -0.2447
      2 C           1.1776    0.3196    0.0000 C.ar    1  LIG1        0.3463
      3 N           0.4631    0.7321    0.0000 N.ar    1  LIG1       -0.3057
      4 C          -0.2514    0.3196    0.0000 C.ar    1  LIG1        0.0548
      5 C          -0.9658    0.7321    0.0000 C.ar    1  LIG1       -0.0195
      6 C          -1.6803    0.3196    0.0000 C.ar    1  LIG1        0.0295
      7 N          -1.6803   -0.5054    0.0000 N.ar    1  LIG1       -0.2625
      8 C          -0.9658   -0.9179    0.0000 C.ar    1  LIG1        0.0381
      9 C          -0.2514   -0.5054    0.0000 C.ar    1  LIG1        0.0347
     10 C           0.4631   -0.9179    0.0000 C.ar    1  LIG1        0.0436
     11 N           1.1776   -0.5054    0.0000 N.ar    1  LIG1       -0.2008
     12 H           0.4631    1.8146    0.0000 H       1  LIG1        0.1705
     13 H          -0.9658    1.8336    0.0000 H       1  LIG1        0.0653
     14 H          -2.6342    0.8704    0.0000 H       1  LIG1        0.0830
     15 H          -0.9658   -2.0194    0.0000 H       1  LIG1        0.0837
     16 H           0.4631   -2.0194    0.0000 H       1  LIG1        0.0838
@<TRIPOS>BOND
     1     1     2    2
     2     2     3   ar
     3     3     4   ar
     4     4     5   ar
     5     5     6   ar
     6     6     7   ar
     7     7     8   ar
     8     8     9   ar
     9     4     9   ar
    10     9    10   ar
    11    10    11   ar
    12     2    11   ar
    13     3    12    1
    14     5    13    1
    15     6    14    1
    16     8    15    1
    17    10    16    1
