@<TRIPOS>MOLECULE
Cn1[nH]ccc1=O
 13 13 0 0 0
SMALL
GASTEIGER
Energy = 0

@<TRIPOS>ATOM
      1 C          -0.1525   -1.2392    0.0000 C.3     1  LIG1        0.0318
      2 N           0.1024   -0.4546    0.0000 N.ar    1  LIG1       -0.2555
      3 N           0.8871   -0.1996    0.0000 N.ar    1  LIG1       -0.3021
      4 C           0.8871    0.6254    0.0000 C.ar    1  LIG1        0.0242
      5 C           0.1024    0.8803    0.0000 C.ar    1  LIG1        0.0217
      6 C          -0.3825    0.2129    0.0000 C.ar    1  LIG1        0.2667
      7 O          -1.2075    0.2129    0.0000 O.2     1  LIG1       -0.2662
      8 H           0.7519   -1.9332    0.0000 H       1  LIG1        0.0473
      9 H          -0.8056   -1.4420   -0.9121 H       1  LIG1        0.0473
     10 H          -0.7726   -1.4318    0.9370 H       1  LIG1        0.0473
     11 H           1.7629   -0.8359    0.0000 H       1  LIG1        0.1863
     12 H           1.7782    1.2729    0.0000 H       1  LIG1        0.0824
     13 H          -0.2380    1.9279    0.0000 H       1  LIG1        0.0687
@<TRIPOS>BOND
     1     1     2    1
     2     2     3   ar
     3     3     4   ar
     4     4     5   ar
     5     5     6   ar
     6     2     6   ar
     7     6     7    2
     8     1     8    1
     9     1     9    1
    10     1    10    1
    11     3    11    1
    12     4    12    1
    13     5    13    1
