@<TRIPOS>MOLECULE
O=c1[nH]ncc2nc[nH]c12
 14 15 0 0 0
SMALL
GASTEIGER
Energy = 0

@<TRIPOS>ATOM
      1 O          -0.4768   -1.4501    0.0000 O.2     1  LIG1       -0.2641
      2 C          -0.4768   -0.6251    0.0000 C.ar    1  LIG1        0.2903
      3 N          -1.1912   -0.2126    0.0000 N.ar    1  LIG1       -0.2414
      4 N          -1.1912    0.6124    0.0000 N.ar    1  LIG1       -0.1771
      5 C          -0.4768    1.0249    0.0000 C.ar    1  LIG1        0.0754
      6 C           0.2377    0.6124    0.0000 C.ar    1  LIG1        0.1138
      7 C           0.2377   -0.2126    0.0000 C.ar    1  LIG1        0.1341
      8 N           1.0223   -0.4676    0.0000 N.ar    1  LIG1       -0.3401
      9 C           1.5072    0.1999    0.0000 C.ar    1  LIG1        0.0946
     10 N           1.0223    0.8673    0.0000 N.ar    1  LIG1       -0.2342
     11 H          -2.1287   -0.7538    0.0000 H       1  LIG1        0.1922
     12 H          -0.4768    2.1264    0.0000 H       1  LIG1        0.0870
     13 H           1.3568   -1.4971    0.0000 H       1  LIG1        0.1670
     14 H           2.6087    0.1999    0.0000 H       1  LIG1        0.1027
@<TRIPOS>BOND
     1     1     2    2
     2     2     3   ar
     3     3     4   ar
     4     4     5   ar
     5     5     6   ar
     6     6     7   ar
     7     2     7   ar
     8     7     8   ar
     9     8     9   ar
    10     9    10   ar
    11     6    10   ar
    12     3    11    1
    13     5    12    1
    14     8    13    1
    15     9    14    1
