@<TRIPOS>MOLECULE
Cn1nc2cccnc2n1
 16 17 0 0 0
SMALL
GASTEIGER
Energy = 0

@<TRIPOS>ATOM
      1 C           2.0008    0.0129    0.0000 C.3     1  LIG1        0.0500
      2 N           1.1758    0.0129    0.0000 N.ar    1  LIG1       -0.1839
      3 N           0.6909    0.6803    0.0000 N.ar    1  LIG1       -0.1507
      4 C          -0.0937    0.4254    0.0000 C.ar    1  LIG1        0.1315
      5 C          -0.8082    0.8379    0.0000 C.ar    1  LIG1       -0.0294
      6 C          -1.5227    0.4254    0.0000 C.ar    1  LIG1       -0.0414
      7 C          -1.5227   -0.3996    0.0000 C.ar    1  LIG1        0.0301
      8 N          -0.8082   -0.8121    0.0000 N.ar    1  LIG1       -0.2330
      9 C          -0.0937   -0.3996    0.0000 C.ar    1  LIG1        0.2015
     10 N           0.6909   -0.6546    0.0000 N.ar    1  LIG1       -0.1322
     11 H           2.3813    1.0875    0.0000 H       1  LIG1        0.0490
     12 H           2.3955   -0.5456   -0.9121 H       1  LIG1        0.0490
     13 H           2.3755   -0.5173    0.9370 H       1  LIG1        0.0490
     14 H          -0.8082    1.9394    0.0000 H       1  LIG1        0.0641
     15 H          -2.4766    0.9762    0.0000 H       1  LIG1        0.0633
     16 H          -2.4766   -0.9504    0.0000 H       1  LIG1        0.0830
@<TRIPOS>BOND
     1     1     2    1
     2     2     3   ar
     3     3     4   ar
     4     4     5   ar
     5     5     6   ar
     6     6     7   ar
     7     7     8   ar
     8     8     9   ar
     9     4     9   ar
    10     9    10   ar
    11     2    10   ar
    12     1    11    1
    13     1    12    1
    14     1    13    1
    15     5    14    1
    16     6    15    1
    17     7    16    1
