@<TRIPOS>MOLECULE
O=c1[nH]cnc2nccnc12
 15 16 0 0 0
SMALL
GASTEIGER
Energy = 0

@<TRIPOS>ATOM
      1 O           0.6252   -1.4725    0.0000 O.2     1  LIG1       -0.2654
      2 C           0.6252   -0.6475    0.0000 C.ar    1  LIG1        0.2790
      3 N           1.3397   -0.2350    0.0000 N.ar    1  LIG1       -0.3116
      4 C           1.3397    0.5900    0.0000 C.ar    1  LIG1        0.0985
      5 N           0.6252    1.0025    0.0000 N.ar    1  LIG1       -0.2163
      6 C          -0.0892    0.5900    0.0000 C.ar    1  LIG1        0.1852
      7 N          -0.8037    1.0025    0.0000 N.ar    1  LIG1       -0.2327
      8 C          -1.5182    0.5900    0.0000 C.ar    1  LIG1        0.0481
      9 C          -1.5182   -0.2350    0.0000 C.ar    1  LIG1        0.0467
     10 N          -0.8037   -0.6475    0.0000 N.ar    1  LIG1       -0.2451
     11 C          -0.0892   -0.2350    0.0000 C.ar    1  LIG1        0.1720
     12 H           2.2772   -0.7763    0.0000 H       1  LIG1        0.1698
     13 H           2.2936    1.1408    0.0000 H       1  LIG1        0.1028
     14 H          -2.4721    1.1408    0.0000 H       1  LIG1        0.0846
     15 H          -2.4721   -0.7858    0.0000 H       1  LIG1        0.0845
@<TRIPOS>BOND
     1     1     2    2
     2     2     3   ar
     3     3     4   ar
     4     4     5   ar
     5     5     6   ar
     6     6     7   ar
     7     7     8   ar
     8     8     9   ar
     9     9    10   ar
    10    10    11   ar
    11     2    11   ar
    12     6    11   ar
    13     3    12    1
    14     4    13    1
    15     8    14    1
    16     9    15    1
