@<TRIPOS>MOLECULE
Cn1[nH]c(=O)c2ccccc12
 19 20 0 0 0
SMALL
GASTEIGER
Energy = 0

@<TRIPOS>ATOM
      1 C           0.9266   -1.4839    0.0000 C.3     1  LIG1        0.0289
      2 N           0.6717   -0.6993    0.0000 N.ar    1  LIG1       -0.2863
      3 N           1.1566   -0.0318    0.0000 N.ar    1  LIG1       -0.2629
      4 C           0.6717    0.6356    0.0000 C.ar    1  LIG1        0.2724
      5 O           0.9266    1.4202    0.0000 O.2     1  LIG1       -0.2658
      6 C          -0.1130    0.3807    0.0000 C.ar    1  LIG1        0.0655
      7 C          -0.8274    0.7932    0.0000 C.ar    1  LIG1       -0.0473
      8 C          -1.5419    0.3807    0.0000 C.ar    1  LIG1       -0.0609
      9 C          -1.5419   -0.4443    0.0000 C.ar    1  LIG1       -0.0597
     10 C          -0.8274   -0.8568    0.0000 C.ar    1  LIG1       -0.0360
     11 C          -0.1130   -0.4443    0.0000 C.ar    1  LIG1        0.0703
     12 H           2.0662   -1.5138    0.0000 H       1  LIG1        0.0472
     13 H           0.5174   -2.0318   -0.9121 H       1  LIG1        0.0472
     14 H           0.5381   -2.0041    0.9370 H       1  LIG1        0.0472
     15 H           2.2391   -0.0318    0.0000 H       1  LIG1        0.1901
     16 H          -0.8274    1.8947    0.0000 H       1  LIG1        0.0626
     17 H          -2.4958    0.9315    0.0000 H       1  LIG1        0.0618
     18 H          -2.4958   -0.9951    0.0000 H       1  LIG1        0.0618
     19 H          -0.8274   -1.9583    0.0000 H       1  LIG1        0.0639
@<TRIPOS>BOND
     1     1     2    1
     2     2     3   ar
     3     3     4   ar
     4     4     5    2
     5     4     6   ar
     6     6     7   ar
     7     7     8   ar
     8     8     9   ar
     9     9    10   ar
    10    10    11   ar
    11     2    11   ar
    12     6    11   ar
    13     1    12    1
    14     1    13    1
    15     1    14    1
    16     3    15    1
    17     7    16    1
    18     8    17    1
    19     9    18    1
    20    10    19    1
