@<TRIPOS>MOLECULE
c1cn2sccc2n1
 12 13 0 0 0
SMALL
GASTEIGER
Energy = 0

@<TRIPOS>ATOM
      1 S           0.6667   -0.5603    0.0000 S.2     1  LIG1       -0.0136
      2 C           1.1516    0.1072    0.0000 C.ar    1  LIG1       -0.0037
      3 C           0.6667    0.7746    0.0000 C.ar    1  LIG1       -0.0105
      4 C          -0.1180    0.5197    0.0000 C.ar    1  LIG1        0.1442
      5 N          -0.9026    0.7746    0.0000 N.ar    1  LIG1       -0.2356
      6 C          -1.3875    0.1072    0.0000 C.ar    1  LIG1        0.0470
      7 C          -0.9026   -0.5603    0.0000 C.ar    1  LIG1        0.0370
      8 N          -0.1180   -0.3053    0.0000 N.ar    1  LIG1       -0.2698
      9 H           2.2531    0.1072    0.0000 H       1  LIG1        0.0709
     10 H           1.0071    1.8222    0.0000 H       1  LIG1        0.0660
     11 H          -2.4890    0.1072    0.0000 H       1  LIG1        0.0845
     12 H          -1.2430   -1.6079    0.0000 H       1  LIG1        0.0835
@<TRIPOS>BOND
     1     1     2   ar
     2     2     3   ar
     3     3     4   ar
     4     4     5   ar
     5     5     6   ar
     6     6     7   ar
     7     7     8   ar
     8     1     8   ar
     9     4     8   ar
    10     2     9    1
    11     3    10    1
    12     6    11    1
    13     7    12    1
