@<TRIPOS>MOLECULE
Cn1ncc2ncccc12
 17 18 0 0 0
SMALL
GASTEIGER
Energy = 0

@<TRIPOS>ATOM
      1 C           1.0573   -1.3162    0.0000 C.3     1  LIG1        0.0309
      2 N           0.8023   -0.5316    0.0000 N.ar    1  LIG1       -0.2652
      3 N           1.2872    0.1358    0.0000 N.ar    1  LIG1       -0.1772
      4 C           0.8023    0.8033    0.0000 C.ar    1  LIG1        0.0753
      5 C           0.0177    0.5483    0.0000 C.ar    1  LIG1        0.1084
      6 N          -0.6968    0.9608    0.0000 N.ar    1  LIG1       -0.2519
      7 C          -1.4112    0.5483    0.0000 C.ar    1  LIG1        0.0284
      8 C          -1.4112   -0.2767    0.0000 C.ar    1  LIG1       -0.0416
      9 C          -0.6968   -0.6892    0.0000 C.ar    1  LIG1       -0.0331
     10 C           0.0177   -0.2767    0.0000 C.ar    1  LIG1        0.0868
     11 H           2.1969   -1.3460    0.0000 H       1  LIG1        0.0473
     12 H           0.6482   -1.8642   -0.9121 H       1  LIG1        0.0473
     13 H           0.6688   -1.8365    0.9370 H       1  LIG1        0.0473
     14 H           1.1427    1.8509    0.0000 H       1  LIG1        0.0870
     15 H          -2.3651    1.0990    0.0000 H       1  LIG1        0.0830
     16 H          -2.3651   -0.8274    0.0000 H       1  LIG1        0.0633
     17 H          -0.6968   -1.7907    0.0000 H       1  LIG1        0.0640
@<TRIPOS>BOND
     1     1     2    1
     2     2     3   ar
     3     3     4   ar
     4     4     5   ar
     5     5     6   ar
     6     6     7   ar
     7     7     8   ar
     8     8     9   ar
     9     9    10   ar
    10     2    10   ar
    11     5    10   ar
    12     1    11    1
    13     1    12    1
    14     1    13    1
    15     4    14    1
    16     7    15    1
    17     8    16    1
    18     9    17    1
