@<TRIPOS>MOLECULE
O=c1ncc2c(=O)[nH]ccc2[nH]1
 17 18 0 0 0
SMALL
GASTEIGER
Energy = 0

@<TRIPOS>ATOM
      1 O           1.9898    0.9085    0.0000 O.2     1  LIG1       -0.2447
      2 C           1.2753    0.4960    0.0000 C.ar    1  LIG1        0.3463
      3 N           0.5608    0.9085    0.0000 N.ar    1  LIG1       -0.3056
      4 C          -0.1536    0.4960    0.0000 C.ar    1  LIG1        0.0585
      5 C          -0.1536   -0.3290    0.0000 C.ar    1  LIG1        0.0809
      6 C           0.5608   -0.7415    0.0000 C.ar    1  LIG1        0.0473
      7 N           1.2753   -0.3290    0.0000 N.ar    1  LIG1       -0.2007
      8 C          -0.8681   -0.7415    0.0000 C.ar    1  LIG1        0.2593
      9 O          -0.8681   -1.5665    0.0000 O.2     1  LIG1       -0.2671
     10 N          -1.5826   -0.3290    0.0000 N.ar    1  LIG1       -0.3285
     11 C          -1.5826    0.4960    0.0000 C.ar    1  LIG1        0.0069
     12 C          -0.8681    0.9085    0.0000 C.ar    1  LIG1       -0.0214
     13 H           0.5608    1.9910    0.0000 H       1  LIG1        0.1705
     14 H           0.5608   -1.8430    0.0000 H       1  LIG1        0.0840
     15 H          -2.5201   -0.8703    0.0000 H       1  LIG1        0.1683
     16 H          -2.5365    1.0468    0.0000 H       1  LIG1        0.0808
     17 H          -0.8681    2.0100    0.0000 H       1  LIG1        0.0653
@<TRIPOS>BOND
     1     1     2    2
     2     2     3   ar
     3     3     4   ar
     4     4     5   ar
     5     5     6   ar
     6     6     7   ar
     7     2     7   ar
     8     5     8   ar
     9     8     9    2
    10     8    10   ar
    11    10    11   ar
    12    11    12   ar
    13     4    12   ar
    14     3    13    1
    15     6    14    1
    16    10    15    1
    17    11    16    1
    18    12    17    1
