@<TRIPOS>MOLECULE
O=c1cc[nH]c2cccnc12
 17 18 0 0 0
SMALL
GASTEIGER
Energy = 0

@<TRIPOS>ATOM
      1 O           0.6329   -1.4616    0.0000 O.2     1  LIG1       -0.2855
      2 C           0.6329   -0.6366    0.0000 C.ar    1  LIG1        0.2075
      3 C           1.3473   -0.2241    0.0000 C.ar    1  LIG1        0.0032
      4 C           1.3473    0.6009    0.0000 C.ar    1  LIG1        0.0058
      5 N           0.6329    1.0134    0.0000 N.ar    1  LIG1       -0.3593
      6 C          -0.0816    0.6009    0.0000 C.ar    1  LIG1        0.0687
      7 C          -0.7961    1.0134    0.0000 C.ar    1  LIG1       -0.0347
      8 C          -1.5105    0.6009    0.0000 C.ar    1  LIG1       -0.0416
      9 C          -1.5105   -0.2241    0.0000 C.ar    1  LIG1        0.0285
     10 N          -0.7961   -0.6366    0.0000 N.ar    1  LIG1       -0.2497
     11 C          -0.0816   -0.2241    0.0000 C.ar    1  LIG1        0.1335
     12 H           2.3012   -0.7748    0.0000 H       1  LIG1        0.0671
     13 H           2.3012    1.1516    0.0000 H       1  LIG1        0.0808
     14 H           0.6329    2.0959    0.0000 H       1  LIG1        0.1654
     15 H          -0.7961    2.1149    0.0000 H       1  LIG1        0.0639
     16 H          -2.4644    1.1516    0.0000 H       1  LIG1        0.0633
     17 H          -2.4644   -0.7748    0.0000 H       1  LIG1        0.0830
@<TRIPOS>BOND
     1     1     2    2
     2     2     3   ar
     3     3     4   ar
     4     4     5   ar
     5     5     6   ar
     6     6     7   ar
     7     7     8   ar
     8     8     9   ar
     9     9    10   ar
    10    10    11   ar
    11     2    11   ar
    12     6    11   ar
    13     3    12    1
    14     4    13    1
    15     5    14    1
    16     7    15    1
    17     8    16    1
    18     9    17    1
