@<TRIPOS>MOLECULE
c1nc2sncc2[nH]1
 11 12 0 0 0
SMALL
GASTEIGER
Energy = 0

@<TRIPOS>ATOM
      1 N           0.9086   -0.7770    0.0000 N.ar    1  LIG1       -0.3427
      2 C           1.3935   -0.1096    0.0000 C.ar    1  LIG1        0.0952
      3 N           0.9086    0.5578    0.0000 N.ar    1  LIG1       -0.2273
      4 C           0.1239    0.3029    0.0000 C.ar    1  LIG1        0.1454
      5 C           0.1239   -0.5221    0.0000 C.ar    1  LIG1        0.0932
      6 C          -0.6607   -0.7770    0.0000 C.ar    1  LIG1        0.0622
      7 N          -1.1456   -0.1096    0.0000 N.ar    1  LIG1       -0.2145
      8 S          -0.6607    0.5578    0.0000 S.2     1  LIG1        0.0332
      9 H           1.2431   -1.8065    0.0000 H       1  LIG1        0.1669
     10 H           2.4950   -0.1096    0.0000 H       1  LIG1        0.1027
     11 H          -1.0011   -1.8246    0.0000 H       1  LIG1        0.0858
@<TRIPOS>BOND
     1     1     2   ar
     2     2     3   ar
     3     3     4   ar
     4     4     5   ar
     5     1     5   ar
     6     5     6   ar
     7     6     7   ar
     8     7     8   ar
     9     4     8   ar
    10     1     9    1
    11     2    10    1
    12     6    11    1
