@<TRIPOS>MOLECULE
Cn1cnc2csnc12
 14 15 0 0 0
SMALL
GASTEIGER
Energy = 0

@<TRIPOS>ATOM
      1 C           1.1246   -1.3121    0.0000 C.3     1  LIG1        0.0147
      2 N           0.8697   -0.5275    0.0000 N.ar    1  LIG1       -0.3176
      3 C           1.3546    0.1399    0.0000 C.ar    1  LIG1        0.0980
      4 N           0.8697    0.8074    0.0000 N.ar    1  LIG1       -0.2335
      5 C           0.0851    0.5524    0.0000 C.ar    1  LIG1        0.1164
      6 C          -0.6996    0.8074    0.0000 C.ar    1  LIG1        0.0233
      7 S          -1.1845    0.1399    0.0000 S.2     1  LIG1        0.0078
      8 N          -0.6996   -0.5275    0.0000 N.ar    1  LIG1       -0.1906
      9 C           0.0851   -0.2726    0.0000 C.ar    1  LIG1        0.1688
     10 H           2.2642   -1.3420    0.0000 H       1  LIG1        0.0457
     11 H           0.7154   -1.8600   -0.9121 H       1  LIG1        0.0457
     12 H           0.7361   -1.8323    0.9370 H       1  LIG1        0.0457
     13 H           2.4561    0.1399    0.0000 H       1  LIG1        0.1029
     14 H          -1.0400    1.8550    0.0000 H       1  LIG1        0.0731
@<TRIPOS>BOND
     1     1     2    1
     2     2     3   ar
     3     3     4   ar
     4     4     5   ar
     5     5     6   ar
     6     6     7   ar
     7     7     8   ar
     8     8     9   ar
     9     2     9   ar
    10     5     9   ar
    11     1    10    1
    12     1    11    1
    13     1    12    1
    14     3    13    1
    15     6    14    1
