@<TRIPOS>MOLECULE
c1nc2[nH]ncc2s1
 11 12 0 0 0
SMALL
GASTEIGER
Energy = 0

@<TRIPOS>ATOM
      1 N           0.8927   -0.7552    0.0000 N.ar    1  LIG1       -0.2598
      2 N           1.3776   -0.0878    0.0000 N.ar    1  LIG1       -0.1794
      3 C           0.8927    0.5797    0.0000 C.ar    1  LIG1        0.0651
      4 C           0.1081    0.3247    0.0000 C.ar    1  LIG1        0.0768
      5 C           0.1081   -0.5003    0.0000 C.ar    1  LIG1        0.1629
      6 N          -0.6765   -0.7552    0.0000 N.ar    1  LIG1       -0.2285
      7 C          -1.1614   -0.0878    0.0000 C.ar    1  LIG1        0.0677
      8 S          -0.6765    0.5797    0.0000 S.2     1  LIG1       -0.0722
      9 H           1.2272   -1.7847    0.0000 H       1  LIG1        0.1905
     10 H           1.2331    1.6273    0.0000 H       1  LIG1        0.0860
     11 H          -2.2629   -0.0878    0.0000 H       1  LIG1        0.0908
@<TRIPOS>BOND
     1     1     2   ar
     2     2     3   ar
     3     3     4   ar
     4     4     5   ar
     5     1     5   ar
     6     5     6   ar
     7     6     7   ar
     8     7     8   ar
     9     4     8   ar
    10     1     9    1
    11     3    10    1
    12     7    11    1
