@<TRIPOS>MOLECULE
O=c1cc[nH]c2c[nH]c(=O)nc12
 17 18 0 0 0
SMALL
GASTEIGER
Energy = 0

@<TRIPOS>ATOM
      1 O           1.9808   -0.5797    0.0000 O.2     1  LIG1       -0.2447
      2 C           1.2663   -0.1672    0.0000 C.ar    1  LIG1        0.3466
      3 N           1.2663    0.6578    0.0000 N.ar    1  LIG1       -0.3110
      4 C           0.5518    1.0703    0.0000 C.ar    1  LIG1        0.0319
      5 C          -0.1627    0.6578    0.0000 C.ar    1  LIG1        0.0851
      6 N          -0.8771    1.0703    0.0000 N.ar    1  LIG1       -0.3581
      7 C          -1.5916    0.6578    0.0000 C.ar    1  LIG1        0.0059
      8 C          -1.5916   -0.1672    0.0000 C.ar    1  LIG1        0.0032
      9 C          -0.8771   -0.5797    0.0000 C.ar    1  LIG1        0.2077
     10 O          -0.8771   -1.4047    0.0000 O.2     1  LIG1       -0.2855
     11 C          -0.1627   -0.1672    0.0000 C.ar    1  LIG1        0.1404
     12 N           0.5518   -0.5797    0.0000 N.ar    1  LIG1       -0.1877
     13 H           2.2038    1.1991    0.0000 H       1  LIG1        0.1699
     14 H           0.5518    2.1718    0.0000 H       1  LIG1        0.0830
     15 H          -0.8771    2.1528    0.0000 H       1  LIG1        0.1654
     16 H          -2.5455    1.2086    0.0000 H       1  LIG1        0.0808
     17 H          -2.5455   -0.7180    0.0000 H       1  LIG1        0.0671
@<TRIPOS>BOND
     1     1     2    2
     2     2     3   ar
     3     3     4   ar
     4     4     5   ar
     5     5     6   ar
     6     6     7   ar
     7     7     8   ar
     8     8     9   ar
     9     9    10    2
    10     9    11   ar
    11     5    11   ar
    12    11    12   ar
    13     2    12   ar
    14     3    13    1
    15     4    14    1
    16     6    15    1
    17     7    16    1
    18     8    17    1
