@<TRIPOS>MOLECULE
Cn1nccc2c(=O)ncnc12
 18 19 0 0 0
SMALL
GASTEIGER
Energy = 0

@<TRIPOS>ATOM
      1 C           0.7327   -1.6711    0.0000 C.3     1  LIG1        0.0324
      2 N           0.7327   -0.8461    0.0000 N.ar    1  LIG1       -0.2494
      3 N           1.4472   -0.4336    0.0000 N.ar    1  LIG1       -0.1781
      4 C           1.4472    0.3914    0.0000 C.ar    1  LIG1        0.0488
      5 C           0.7327    0.8039    0.0000 C.ar    1  LIG1       -0.0260
      6 C           0.0183    0.3914    0.0000 C.ar    1  LIG1        0.0865
      7 C          -0.6962    0.8039    0.0000 C.ar    1  LIG1        0.2824
      8 O          -0.6962    1.6289    0.0000 O.2     1  LIG1       -0.2651
      9 N          -1.4107    0.3914    0.0000 N.ar    1  LIG1       -0.1970
     10 C          -1.4107   -0.4336    0.0000 C.ar    1  LIG1        0.1223
     11 N          -0.6962   -0.8461    0.0000 N.ar    1  LIG1       -0.2161
     12 C           0.0183   -0.4336    0.0000 C.ar    1  LIG1        0.1635
     13 H           1.8073   -2.0516    0.0000 H       1  LIG1        0.0473
     14 H           0.1742   -2.0658   -0.9121 H       1  LIG1        0.0473
     15 H           0.2025   -2.0458    0.9370 H       1  LIG1        0.0473
     16 H           2.4011    0.9422    0.0000 H       1  LIG1        0.0847
     17 H           0.7327    1.9054    0.0000 H       1  LIG1        0.0642
     18 H          -2.3646   -0.9844    0.0000 H       1  LIG1        0.1049
@<TRIPOS>BOND
     1     1     2    1
     2     2     3   ar
     3     3     4   ar
     4     4     5   ar
     5     5     6   ar
     6     6     7   ar
     7     7     8    2
     8     7     9   ar
     9     9    10   ar
    10    10    11   ar
    11    11    12   ar
    12     2    12   ar
    13     6    12   ar
    14     1    13    1
    15     1    14    1
    16     1    15    1
    17     4    16    1
    18     5    17    1
    19    10    18    1
