@<TRIPOS>MOLECULE
O=c1ccc2ocnc2[nH]1
 14 15 0 0 0
SMALL
GASTEIGER
Energy = 0

@<TRIPOS>ATOM
      1 O          -1.7768    0.7227    0.0000 O.2     1  LIG1       -0.2679
      2 C          -1.0624    0.3102    0.0000 C.ar    1  LIG1        0.2504
      3 N          -0.3479    0.7227    0.0000 N.ar    1  LIG1       -0.3044
      4 C           0.3666    0.3102    0.0000 C.ar    1  LIG1        0.1795
      5 C           0.3666   -0.5148    0.0000 C.ar    1  LIG1        0.1721
      6 O           1.1512   -0.7698    0.0000 O.2     1  LIG1       -0.4409
      7 C           1.6361   -0.1023    0.0000 C.ar    1  LIG1        0.1846
      8 N           1.1512    0.5651    0.0000 N.ar    1  LIG1       -0.1982
      9 C          -0.3479   -0.9273    0.0000 C.ar    1  LIG1       -0.0105
     10 C          -1.0624   -0.5148    0.0000 C.ar    1  LIG1        0.0064
     11 H          -0.3479    1.8052    0.0000 H       1  LIG1        0.1704
     12 H           2.7376   -0.1023    0.0000 H       1  LIG1        0.1255
     13 H          -0.3479   -2.0288    0.0000 H       1  LIG1        0.0657
     14 H          -2.0163   -1.0656    0.0000 H       1  LIG1        0.0673
@<TRIPOS>BOND
     1     1     2    2
     2     2     3   ar
     3     3     4   ar
     4     4     5   ar
     5     5     6   ar
     6     6     7   ar
     7     7     8   ar
     8     4     8   ar
     9     5     9   ar
    10     9    10   ar
    11     2    10   ar
    12     3    11    1
    13     7    12    1
    14     9    13    1
    15    10    14    1
