@<TRIPOS>MOLECULE
c1snc2cnnnc12
 11 12 0 0 0
SMALL
GASTEIGER
Energy = 0

@<TRIPOS>ATOM
      1 S           1.2511   -0.0023    0.0000 S.2     1  LIG1        0.0061
      2 C           0.7662    0.6651    0.0000 C.ar    1  LIG1        0.0236
      3 C          -0.0184    0.4102    0.0000 C.ar    1  LIG1        0.1232
      4 N          -0.7329    0.8227    0.0000 N.ar    1  LIG1       -0.1272
      5 N          -1.4473    0.4102    0.0000 N.ar    1  LIG1       -0.0427
      6 N          -1.4473   -0.4148    0.0000 N.ar    1  LIG1       -0.1356
      7 C          -0.7329   -0.8273    0.0000 C.ar    1  LIG1        0.0797
      8 C          -0.0184   -0.4148    0.0000 C.ar    1  LIG1        0.1198
      9 N           0.7662   -0.6697    0.0000 N.ar    1  LIG1       -0.2072
     10 H           1.1066    1.7127    0.0000 H       1  LIG1        0.0731
     11 H          -0.7329   -1.9288    0.0000 H       1  LIG1        0.0871
@<TRIPOS>BOND
     1     1     2   ar
     2     2     3   ar
     3     3     4   ar
     4     4     5   ar
     5     5     6   ar
     6     6     7   ar
     7     7     8   ar
     8     3     8   ar
     9     8     9   ar
    10     1     9   ar
    11     2    10    1
    12     7    11    1
