@<TRIPOS>MOLECULE
O=c1ncc2ncccc2[nH]1
 16 17 0 0 0
SMALL
GASTEIGER
Energy = 0

@<TRIPOS>ATOM
      1 O           1.8820    0.7379    0.0000 O.2     1  LIG1       -0.2447
      2 C           1.1675    0.3254    0.0000 C.ar    1  LIG1        0.3463
      3 N           0.4531    0.7379    0.0000 N.ar    1  LIG1       -0.3045
      4 C          -0.2614    0.3254    0.0000 C.ar    1  LIG1        0.0703
      5 C          -0.9759    0.7379    0.0000 C.ar    1  LIG1       -0.0347
      6 C          -1.6904    0.3254    0.0000 C.ar    1  LIG1       -0.0416
      7 C          -1.6904   -0.4996    0.0000 C.ar    1  LIG1        0.0284
      8 N          -0.9759   -0.9121    0.0000 N.ar    1  LIG1       -0.2520
      9 C          -0.2614   -0.4996    0.0000 C.ar    1  LIG1        0.1053
     10 C           0.4531   -0.9121    0.0000 C.ar    1  LIG1        0.0603
     11 N           1.1675   -0.4996    0.0000 N.ar    1  LIG1       -0.1994
     12 H           0.4531    1.8204    0.0000 H       1  LIG1        0.1705
     13 H          -0.9759    1.8394    0.0000 H       1  LIG1        0.0639
     14 H          -2.6443    0.8762    0.0000 H       1  LIG1        0.0633
     15 H          -2.6443   -1.0504    0.0000 H       1  LIG1        0.0830
     16 H           0.4531   -2.0136    0.0000 H       1  LIG1        0.0854
@<TRIPOS>BOND
     1     1     2    2
     2     2     3   ar
     3     3     4   ar
     4     4     5   ar
     5     5     6   ar
     6     6     7   ar
     7     7     8   ar
     8     8     9   ar
     9     4     9   ar
    10     9    10   ar
    11    10    11   ar
    12     2    11   ar
    13     3    12    1
    14     5    13    1
    15     6    14    1
    16     7    15    1
    17    10    16    1
