@<TRIPOS>MOLECULE
c1cnc2nnsc2c1
 12 13 0 0 0
SMALL
GASTEIGER
Energy = 0

@<TRIPOS>ATOM
      1 S           0.7770   -0.5899    0.0000 S.2     1  LIG1        0.0382
      2 N           1.2620    0.0776    0.0000 N.ar    1  LIG1       -0.1079
      3 N           0.7770    0.7450    0.0000 N.ar    1  LIG1       -0.1210
      4 C          -0.0076    0.4901    0.0000 C.ar    1  LIG1        0.1905
      5 N          -0.7221    0.9026    0.0000 N.ar    1  LIG1       -0.2338
      6 C          -1.4365    0.4901    0.0000 C.ar    1  LIG1        0.0301
      7 C          -1.4365   -0.3349    0.0000 C.ar    1  LIG1       -0.0424
      8 C          -0.7221   -0.7474    0.0000 C.ar    1  LIG1       -0.0414
      9 C          -0.0076   -0.3349    0.0000 C.ar    1  LIG1        0.0782
     10 H          -2.3904    1.0408    0.0000 H       1  LIG1        0.0830
     11 H          -2.3904   -0.8856    0.0000 H       1  LIG1        0.0633
     12 H          -0.7221   -1.8489    0.0000 H       1  LIG1        0.0631
@<TRIPOS>BOND
     1     1     2   ar
     2     2     3   ar
     3     3     4   ar
     4     4     5   ar
     5     5     6   ar
     6     6     7   ar
     7     7     8   ar
     8     8     9   ar
     9     1     9   ar
    10     4     9   ar
    11     6    10    1
    12     7    11    1
    13     8    12    1
