@<TRIPOS>MOLECULE
Cn1cnc(=O)c2nnncc12
 17 18 0 0 0
SMALL
GASTEIGER
Energy = 0

@<TRIPOS>ATOM
      1 C           0.6059   -1.6968    0.0000 C.3     1  LIG1        0.0133
      2 N           0.6059   -0.8718    0.0000 N.ar    1  LIG1       -0.3317
      3 C           1.3204   -0.4593    0.0000 C.ar    1  LIG1        0.1002
      4 N           1.3204    0.3657    0.0000 N.ar    1  LIG1       -0.1975
      5 C           0.6059    0.7782    0.0000 C.ar    1  LIG1        0.3009
      6 O           0.6059    1.6032    0.0000 O.2     1  LIG1       -0.2634
      7 C          -0.1085    0.3657    0.0000 C.ar    1  LIG1        0.1786
      8 N          -0.8230    0.7782    0.0000 N.ar    1  LIG1       -0.1223
      9 N          -1.5375    0.3657    0.0000 N.ar    1  LIG1       -0.0425
     10 N          -1.5375   -0.4593    0.0000 N.ar    1  LIG1       -0.1357
     11 C          -0.8230   -0.8718    0.0000 C.ar    1  LIG1        0.0774
     12 C          -0.1085   -0.4593    0.0000 C.ar    1  LIG1        0.0957
     13 H           1.6805   -2.0773    0.0000 H       1  LIG1        0.0456
     14 H           0.0474   -2.0915   -0.9121 H       1  LIG1        0.0456
     15 H           0.0757   -2.0715    0.9370 H       1  LIG1        0.0456
     16 H           2.2743   -1.0101    0.0000 H       1  LIG1        0.1030
     17 H          -0.8230   -1.9733    0.0000 H       1  LIG1        0.0870
@<TRIPOS>BOND
     1     1     2    1
     2     2     3   ar
     3     3     4   ar
     4     4     5   ar
     5     5     6    2
     6     5     7   ar
     7     7     8   ar
     8     8     9   ar
     9     9    10   ar
    10    10    11   ar
    11    11    12   ar
    12     2    12   ar
    13     7    12   ar
    14     1    13    1
    15     1    14    1
    16     1    15    1
    17     3    16    1
    18    11    17    1
