@<TRIPOS>MOLECULE
Cn1cc2ncncc2cc1=O
 19 20 0 0 0
SMALL
GASTEIGER
Energy = 0

@<TRIPOS>ATOM
      1 C           1.7631    0.8357    0.0000 C.3     1  LIG1        0.0148
      2 N           1.0486    0.4232    0.0000 N.ar    1  LIG1       -0.3162
      3 C           0.3341    0.8357    0.0000 C.ar    1  LIG1        0.0336
      4 C          -0.3803    0.4232    0.0000 C.ar    1  LIG1        0.0905
      5 N          -1.0948    0.8357    0.0000 N.ar    1  LIG1       -0.2340
      6 C          -1.8093    0.4232    0.0000 C.ar    1  LIG1        0.1166
      7 N          -1.8093   -0.4018    0.0000 N.ar    1  LIG1       -0.2431
      8 C          -1.0948   -0.8143    0.0000 C.ar    1  LIG1        0.0387
      9 C          -0.3803   -0.4018    0.0000 C.ar    1  LIG1        0.0250
     10 C           0.3341   -0.8143    0.0000 C.ar    1  LIG1        0.0136
     11 C           1.0486   -0.4018    0.0000 C.ar    1  LIG1        0.2518
     12 O           1.7631   -0.8143    0.0000 O.2     1  LIG1       -0.2677
     13 H           1.5554    1.9566    0.0000 H       1  LIG1        0.0457
     14 H           2.3841    0.5494   -0.9121 H       1  LIG1        0.0457
     15 H           2.3528    0.5639    0.9370 H       1  LIG1        0.0457
     16 H           0.3341    1.9372    0.0000 H       1  LIG1        0.0832
     17 H          -2.7632    0.9740    0.0000 H       1  LIG1        0.1047
     18 H          -1.0948   -1.9158    0.0000 H       1  LIG1        0.0837
     19 H           0.3341   -1.9158    0.0000 H       1  LIG1        0.0679
@<TRIPOS>BOND
     1     1     2    1
     2     2     3   ar
     3     3     4   ar
     4     4     5   ar
     5     5     6   ar
     6     6     7   ar
     7     7     8   ar
     8     8     9   ar
     9     4     9   ar
    10     9    10   ar
    11    10    11   ar
    12     2    11   ar
    13    11    12    2
    14     1    13    1
    15     1    14    1
    16     1    15    1
    17     3    16    1
    18     6    17    1
    19     8    18    1
    20    10    19    1
