@<TRIPOS>MOLECULE
Cn1ccn2nncc2c1=O
 17 18 0 0 0
SMALL
GASTEIGER
Energy = 0

@<TRIPOS>ATOM
      1 C           1.7734   -0.5823    0.0000 C.3     1  LIG1        0.0148
      2 N           1.0589   -0.1698    0.0000 N.ar    1  LIG1       -0.3150
      3 C           1.0589    0.6552    0.0000 C.ar    1  LIG1        0.0258
      4 C           0.3444    1.0677    0.0000 C.ar    1  LIG1        0.0478
      5 N          -0.3700    0.6552    0.0000 N.ar    1  LIG1       -0.2134
      6 N          -1.1547    0.9102    0.0000 N.ar    1  LIG1       -0.0606
      7 N          -1.6396    0.2427    0.0000 N.ar    1  LIG1       -0.1368
      8 C          -1.1547   -0.4247    0.0000 C.ar    1  LIG1        0.0823
      9 C          -0.3700   -0.1698    0.0000 C.ar    1  LIG1        0.1510
     10 C           0.3444   -0.5823    0.0000 C.ar    1  LIG1        0.2782
     11 O           0.3444   -1.4073    0.0000 O.2     1  LIG1       -0.2653
     12 H           2.6402    0.1581    0.0000 H       1  LIG1        0.0457
     13 H           1.8360   -1.2633   -0.9121 H       1  LIG1        0.0457
     14 H           1.8328   -1.2289    0.9370 H       1  LIG1        0.0457
     15 H           2.0128    1.2060    0.0000 H       1  LIG1        0.0825
     16 H           0.3444    2.1692    0.0000 H       1  LIG1        0.0845
     17 H          -1.4951   -1.4723    0.0000 H       1  LIG1        0.0872
@<TRIPOS>BOND
     1     1     2    1
     2     2     3   ar
     3     3     4   ar
     4     4     5   ar
     5     5     6   ar
     6     6     7   ar
     7     7     8   ar
     8     8     9   ar
     9     5     9   ar
    10     9    10   ar
    11     2    10   ar
    12    10    11    2
    13     1    12    1
    14     1    13    1
    15     1    14    1
    16     3    15    1
    17     4    16    1
    18     8    17    1
