@<TRIPOS>MOLECULE
c1ncn2cncnc12
 13 14 0 0 0
SMALL
GASTEIGER
Energy = 0

@<TRIPOS>ATOM
      1 C           1.2641    0.4125    0.0000 C.ar    1  LIG1        0.1200
      2 N           0.5496    0.8250    0.0000 N.ar    1  LIG1       -0.2164
      3 C          -0.1649    0.4125    0.0000 C.ar    1  LIG1        0.1597
      4 C          -0.9495    0.6674    0.0000 C.ar    1  LIG1        0.0721
      5 N          -1.4344   -0.0000    0.0000 N.ar    1  LIG1       -0.2414
      6 C          -0.9495   -0.6674    0.0000 C.ar    1  LIG1        0.1027
      7 N          -0.1649   -0.4125    0.0000 N.ar    1  LIG1       -0.2737
      8 C           0.5496   -0.8250    0.0000 C.ar    1  LIG1        0.1044
      9 N           1.2641   -0.4125    0.0000 N.ar    1  LIG1       -0.2255
     10 H           2.2180    0.9633    0.0000 H       1  LIG1        0.1048
     11 H          -1.2899    1.7150    0.0000 H       1  LIG1        0.0867
     12 H          -1.2899   -1.7150    0.0000 H       1  LIG1        0.1033
     13 H           0.5496   -1.9265    0.0000 H       1  LIG1        0.1033
@<TRIPOS>BOND
     1     1     2   ar
     2     2     3   ar
     3     3     4   ar
     4     4     5   ar
     5     5     6   ar
     6     6     7   ar
     7     3     7   ar
     8     7     8   ar
     9     8     9   ar
    10     1     9   ar
    11     1    10    1
    12     4    11    1
    13     6    12    1
    14     8    13    1
