@<TRIPOS>MOLECULE
c1cc2nnccn2n1
 13 14 0 0 0
SMALL
GASTEIGER
Energy = 0

@<TRIPOS>ATOM
      1 C           1.2558    0.4152    0.0000 C.ar    1  LIG1        0.0681
      2 C           0.5413    0.8277    0.0000 C.ar    1  LIG1        0.0513
      3 N          -0.1732    0.4152    0.0000 N.ar    1  LIG1       -0.2186
      4 N          -0.9578    0.6701    0.0000 N.ar    1  LIG1       -0.1733
      5 C          -1.4427    0.0027    0.0000 C.ar    1  LIG1        0.0520
      6 C          -0.9578   -0.6647    0.0000 C.ar    1  LIG1        0.0041
      7 C          -0.1732   -0.4098    0.0000 C.ar    1  LIG1        0.1773
      8 N           0.5413   -0.8223    0.0000 N.ar    1  LIG1       -0.1296
      9 N           1.2558   -0.4098    0.0000 N.ar    1  LIG1       -0.1541
     10 H           2.2097    0.9660    0.0000 H       1  LIG1        0.0863
     11 H           0.5413    1.9292    0.0000 H       1  LIG1        0.0847
     12 H          -2.5442    0.0027    0.0000 H       1  LIG1        0.0848
     13 H          -1.2982   -1.7123    0.0000 H       1  LIG1        0.0671
@<TRIPOS>BOND
     1     1     2   ar
     2     2     3   ar
     3     3     4   ar
     4     4     5   ar
     5     5     6   ar
     6     6     7   ar
     7     3     7   ar
     8     7     8   ar
     9     8     9   ar
    10     1     9   ar
    11     1    10    1
    12     2    11    1
    13     5    12    1
    14     6    13    1
