@<TRIPOS>MOLECULE
O=c1ccn2nccnc2n1
 15 16 0 0 0
SMALL
GASTEIGER
Energy = 0

@<TRIPOS>ATOM
      1 O           1.9153   -0.7277    0.0000 O.2     1  LIG1       -0.2657
      2 C           1.2008   -0.3152    0.0000 C.ar    1  LIG1        0.2748
      3 C           1.2008    0.5098    0.0000 C.ar    1  LIG1        0.0230
      4 C           0.4864    0.9223    0.0000 C.ar    1  LIG1        0.0381
      5 N          -0.2281    0.5098    0.0000 N.ar    1  LIG1       -0.2054
      6 N          -0.9426    0.9223    0.0000 N.ar    1  LIG1       -0.1708
      7 C          -1.6570    0.5098    0.0000 C.ar    1  LIG1        0.0666
      8 C          -1.6570   -0.3152    0.0000 C.ar    1  LIG1        0.0512
      9 N          -0.9426   -0.7277    0.0000 N.ar    1  LIG1       -0.2174
     10 C          -0.2281   -0.3152    0.0000 C.ar    1  LIG1        0.2545
     11 N           0.4864   -0.7277    0.0000 N.ar    1  LIG1       -0.1717
     12 H           2.1547    1.0605    0.0000 H       1  LIG1        0.0687
     13 H           0.4864    2.0238    0.0000 H       1  LIG1        0.0833
     14 H          -2.6109    1.0605    0.0000 H       1  LIG1        0.0863
     15 H          -2.6109   -0.8659    0.0000 H       1  LIG1        0.0847
@<TRIPOS>BOND
     1     1     2    2
     2     2     3   ar
     3     3     4   ar
     4     4     5   ar
     5     5     6   ar
     6     6     7   ar
     7     7     8   ar
     8     8     9   ar
     9     9    10   ar
    10     5    10   ar
    11    10    11   ar
    12     2    11   ar
    13     3    12    1
    14     4    13    1
    15     7    14    1
    16     8    15    1
