@<TRIPOS>MOLECULE
O=c1ccc2scnc2[nH]1
 14 15 0 0 0
SMALL
GASTEIGER
Energy = 0

@<TRIPOS>ATOM
      1 O          -1.9017    0.8061    0.0000 O.2     1  LIG1       -0.2679
      2 C          -1.1872    0.3936    0.0000 C.ar    1  LIG1        0.2503
      3 N          -0.4727    0.8061    0.0000 N.ar    1  LIG1       -0.3066
      4 C           0.2417    0.3936    0.0000 C.ar    1  LIG1        0.1480
      5 C           0.2417   -0.4314    0.0000 C.ar    1  LIG1        0.0561
      6 S           1.0263   -0.6863    0.0000 S.2     1  LIG1       -0.0738
      7 C           1.5113   -0.0189    0.0000 C.ar    1  LIG1        0.0676
      8 N           1.0263    0.6486    0.0000 N.ar    1  LIG1       -0.2298
      9 C          -0.4727   -0.8439    0.0000 C.ar    1  LIG1       -0.0393
     10 C          -1.1872   -0.4314    0.0000 C.ar    1  LIG1        0.0039
     11 H          -0.4727    1.8886    0.0000 H       1  LIG1        0.1704
     12 H           2.6128   -0.0189    0.0000 H       1  LIG1        0.0908
     13 H          -0.4727   -1.9454    0.0000 H       1  LIG1        0.0631
     14 H          -2.1411   -0.9822    0.0000 H       1  LIG1        0.0672
@<TRIPOS>BOND
     1     1     2    2
     2     2     3   ar
     3     3     4   ar
     4     4     5   ar
     5     5     6   ar
     6     6     7   ar
     7     7     8   ar
     8     4     8   ar
     9     5     9   ar
    10     9    10   ar
    11     2    10   ar
    12     3    11    1
    13     7    12    1
    14     9    13    1
    15    10    14    1
