@<TRIPOS>MOLECULE
Cn1ccn2c(=O)ncc2c1
 18 19 0 0 0
SMALL
GASTEIGER
Energy = 0

@<TRIPOS>ATOM
      1 C           1.9547   -0.9188    0.0000 C.3     1  LIG1        0.0114
      2 N           1.2402   -0.5063    0.0000 N.ar    1  LIG1       -0.3529
      3 C           1.2402    0.3187    0.0000 C.ar    1  LIG1        0.0209
      4 C           0.5257    0.7312    0.0000 C.ar    1  LIG1        0.0309
      5 N          -0.1888    0.3187    0.0000 N.ar    1  LIG1       -0.2638
      6 C          -0.9734    0.5737    0.0000 C.ar    1  LIG1        0.3531
      7 O          -1.2283    1.3583    0.0000 O.2     1  LIG1       -0.2441
      8 N          -1.4583   -0.0938    0.0000 N.ar    1  LIG1       -0.1990
      9 C          -0.9734   -0.7612    0.0000 C.ar    1  LIG1        0.0584
     10 C          -0.1888   -0.5063    0.0000 C.ar    1  LIG1        0.0852
     11 C           0.5257   -0.9188    0.0000 C.ar    1  LIG1        0.0298
     12 H           2.8215   -0.1784    0.0000 H       1  LIG1        0.0455
     13 H           2.0173   -1.5998   -0.9121 H       1  LIG1        0.0455
     14 H           2.0141   -1.5654    0.9370 H       1  LIG1        0.0455
     15 H           2.1941    0.8695    0.0000 H       1  LIG1        0.0824
     16 H           0.5257    1.8327    0.0000 H       1  LIG1        0.0829
     17 H          -1.3138   -1.8088    0.0000 H       1  LIG1        0.0853
     18 H           0.5257   -2.0203    0.0000 H       1  LIG1        0.0830
@<TRIPOS>BOND
     1     1     2    1
     2     2     3   ar
     3     3     4   ar
     4     4     5   ar
     5     5     6   ar
     6     6     7    2
     7     6     8   ar
     8     8     9   ar
     9     9    10   ar
    10     5    10   ar
    11    10    11   ar
    12     2    11   ar
    13     1    12    1
    14     1    13    1
    15     1    14    1
    16     3    15    1
    17     4    16    1
    18     9    17    1
    19    11    18    1
