@<TRIPOS>MOLECULE
Cn1cc[nH]c1=O
 13 13 0 0 0
SMALL
GASTEIGER
Energy = 0

@<TRIPOS>ATOM
      1 C          -0.1355   -1.2626    0.0000 C.3     1  LIG1        0.0161
      2 N           0.1195   -0.4780    0.0000 N.ar    1  LIG1       -0.3024
      3 C           0.9041   -0.2230    0.0000 C.ar    1  LIG1        0.0251
      4 C           0.9041    0.6020    0.0000 C.ar    1  LIG1        0.0226
      5 N           0.1195    0.8569    0.0000 N.ar    1  LIG1       -0.3130
      6 C          -0.3655    0.1895    0.0000 C.ar    1  LIG1        0.3264
      7 O          -1.1905    0.1895    0.0000 O.2     1  LIG1       -0.2466
      8 H           0.7689   -1.9567    0.0000 H       1  LIG1        0.0457
      9 H          -0.7886   -1.4653   -0.9121 H       1  LIG1        0.0457
     10 H          -0.7556   -1.4551    0.9370 H       1  LIG1        0.0457
     11 H           1.7953   -0.8704    0.0000 H       1  LIG1        0.0825
     12 H           1.7952    1.2495    0.0000 H       1  LIG1        0.0823
     13 H          -0.2150    1.8864    0.0000 H       1  LIG1        0.1699
@<TRIPOS>BOND
     1     1     2    1
     2     2     3   ar
     3     3     4   ar
     4     4     5   ar
     5     5     6   ar
     6     2     6   ar
     7     6     7    2
     8     1     8    1
     9     1     9    1
    10     1    10    1
    11     3    11    1
    12     4    12    1
    13     5    13    1
