@<TRIPOS>MOLECULE
Cn1ncc2ncc(=O)[nH]c12
 17 18 0 0 0
SMALL
GASTEIGER
Energy = 0

@<TRIPOS>ATOM
      1 C           1.3029   -1.2302    0.0000 C.3     1  LIG1        0.0324
      2 N           1.0480   -0.4456    0.0000 N.ar    1  LIG1       -0.2497
      3 N           1.5329    0.2219    0.0000 N.ar    1  LIG1       -0.1759
      4 C           1.0480    0.8893    0.0000 C.ar    1  LIG1        0.0769
      5 C           0.2634    0.6344    0.0000 C.ar    1  LIG1        0.1256
      6 C           0.2634   -0.1906    0.0000 C.ar    1  LIG1        0.1575
      7 N          -0.4511   -0.6031    0.0000 N.ar    1  LIG1       -0.3047
      8 C          -1.1656   -0.1906    0.0000 C.ar    1  LIG1        0.2684
      9 O          -1.8800   -0.6031    0.0000 O.2     1  LIG1       -0.2662
     10 C          -1.1656    0.6344    0.0000 C.ar    1  LIG1        0.0927
     11 N          -0.4511    1.0469    0.0000 N.ar    1  LIG1       -0.2450
     12 H           2.4425   -1.2601    0.0000 H       1  LIG1        0.0473
     13 H           0.8937   -1.7781   -0.9121 H       1  LIG1        0.0473
     14 H           0.9144   -1.7504    0.9370 H       1  LIG1        0.0473
     15 H           1.3884    1.9369    0.0000 H       1  LIG1        0.0870
     16 H          -0.4511   -1.6856    0.0000 H       1  LIG1        0.1704
     17 H          -2.1195    1.1852    0.0000 H       1  LIG1        0.0885
@<TRIPOS>BOND
     1     1     2    1
     2     2     3   ar
     3     3     4   ar
     4     4     5   ar
     5     5     6   ar
     6     2     6   ar
     7     6     7   ar
     8     7     8   ar
     9     8     9    2
    10     8    10   ar
    11    10    11   ar
    12     5    11   ar
    13     1    12    1
    14     1    13    1
    15     1    14    1
    16     4    15    1
    17     7    16    1
    18    10    17    1
