@<TRIPOS>MOLECULE
c1cc2nnc[nH]c2n1
 13 14 0 0 0
SMALL
GASTEIGER
Energy = 0

@<TRIPOS>ATOM
      1 N           0.5290   -0.8206    0.0000 N.ar    1  LIG1       -0.3278
      2 C           1.2435   -0.4081    0.0000 C.ar    1  LIG1        0.1174
      3 N           1.2435    0.4169    0.0000 N.ar    1  LIG1       -0.1391
      4 N           0.5290    0.8294    0.0000 N.ar    1  LIG1       -0.1447
      5 C          -0.1855    0.4169    0.0000 C.ar    1  LIG1        0.1297
      6 C          -0.9701    0.6718    0.0000 C.ar    1  LIG1       -0.0128
      7 C          -1.4550    0.0044    0.0000 C.ar    1  LIG1        0.0321
      8 N          -0.9701   -0.6631    0.0000 N.ar    1  LIG1       -0.2358
      9 C          -0.1855   -0.4081    0.0000 C.ar    1  LIG1        0.1594
     10 H           0.5290   -1.9031    0.0000 H       1  LIG1        0.1683
     11 H           2.1974   -0.9589    0.0000 H       1  LIG1        0.1046
     12 H          -1.3105    1.7194    0.0000 H       1  LIG1        0.0656
     13 H          -2.5565    0.0044    0.0000 H       1  LIG1        0.0831
@<TRIPOS>BOND
     1     1     2   ar
     2     2     3   ar
     3     3     4   ar
     4     4     5   ar
     5     5     6   ar
     6     6     7   ar
     7     7     8   ar
     8     8     9   ar
     9     1     9   ar
    10     5     9   ar
    11     1    10    1
    12     2    11    1
    13     6    12    1
    14     7    13    1
