@<TRIPOS>MOLECULE
O=c1cc[nH]c2ncccc12
 17 18 0 0 0
SMALL
GASTEIGER
Energy = 0

@<TRIPOS>ATOM
      1 O           0.6329   -1.4851    0.0000 O.2     1  LIG1       -0.2871
      2 C           0.6329   -0.6601    0.0000 C.ar    1  LIG1        0.1909
      3 C           1.3473   -0.2476    0.0000 C.ar    1  LIG1        0.0018
      4 C           1.3473    0.5774    0.0000 C.ar    1  LIG1        0.0071
      5 N           0.6329    0.9899    0.0000 N.ar    1  LIG1       -0.3456
      6 C          -0.0816    0.5774    0.0000 C.ar    1  LIG1        0.1417
      7 N          -0.7961    0.9899    0.0000 N.ar    1  LIG1       -0.2374
      8 C          -1.5105    0.5774    0.0000 C.ar    1  LIG1        0.0299
      9 C          -1.5105   -0.2476    0.0000 C.ar    1  LIG1       -0.0428
     10 C          -0.7961   -0.6601    0.0000 C.ar    1  LIG1       -0.0460
     11 C          -0.0816   -0.2476    0.0000 C.ar    1  LIG1        0.0639
     12 H           2.3012   -0.7983    0.0000 H       1  LIG1        0.0670
     13 H           2.3012    1.1281    0.0000 H       1  LIG1        0.0808
     14 H           0.6329    2.0724    0.0000 H       1  LIG1        0.1668
     15 H          -2.4644    1.1281    0.0000 H       1  LIG1        0.0830
     16 H          -2.4644   -0.7983    0.0000 H       1  LIG1        0.0633
     17 H          -0.7961   -1.7616    0.0000 H       1  LIG1        0.0626
@<TRIPOS>BOND
     1     1     2    2
     2     2     3   ar
     3     3     4   ar
     4     4     5   ar
     5     5     6   ar
     6     6     7   ar
     7     7     8   ar
     8     8     9   ar
     9     9    10   ar
    10    10    11   ar
    11     2    11   ar
    12     6    11   ar
    13     3    12    1
    14     4    13    1
    15     5    14    1
    16     8    15    1
    17     9    16    1
    18    10    17    1
