@<TRIPOS>MOLECULE
O=c1ccc2c(=O)nc[nH]c2[nH]1
 17 18 0 0 0
SMALL
GASTEIGER
Energy = 0

@<TRIPOS>ATOM
      1 O           2.0168    0.8929    0.0000 O.2     1  LIG1       -0.2679
      2 C           1.3024    0.4804    0.0000 C.ar    1  LIG1        0.2502
      3 N           0.5879    0.8929    0.0000 N.ar    1  LIG1       -0.3083
      4 C          -0.1266    0.4804    0.0000 C.ar    1  LIG1        0.1249
      5 C          -0.1266   -0.3446    0.0000 C.ar    1  LIG1        0.0818
      6 C           0.5879   -0.7571    0.0000 C.ar    1  LIG1       -0.0408
      7 C           1.3024   -0.3446    0.0000 C.ar    1  LIG1        0.0036
      8 C          -0.8410   -0.7571    0.0000 C.ar    1  LIG1        0.2822
      9 O          -0.8410   -1.5821    0.0000 O.2     1  LIG1       -0.2651
     10 N          -1.5555   -0.3446    0.0000 N.ar    1  LIG1       -0.1990
     11 C          -1.5555    0.4804    0.0000 C.ar    1  LIG1        0.0987
     12 N          -0.8410    0.8929    0.0000 N.ar    1  LIG1       -0.3317
     13 H           0.5879    1.9754    0.0000 H       1  LIG1        0.1703
     14 H           0.5879   -1.8586    0.0000 H       1  LIG1        0.0628
     15 H           2.2563   -0.8954    0.0000 H       1  LIG1        0.0672
     16 H          -2.5094    1.0312    0.0000 H       1  LIG1        0.1028
     17 H          -0.8410    1.9754    0.0000 H       1  LIG1        0.1681
@<TRIPOS>BOND
     1     1     2    2
     2     2     3   ar
     3     3     4   ar
     4     4     5   ar
     5     5     6   ar
     6     6     7   ar
     7     2     7   ar
     8     5     8   ar
     9     8     9    2
    10     8    10   ar
    11    10    11   ar
    12    11    12   ar
    13     4    12   ar
    14     3    13    1
    15     6    14    1
    16     7    15    1
    17    11    16    1
    18    12    17    1
