@<TRIPOS>MOLECULE
Cn1cc2ncsc2nc1=O
 16 17 0 0 0
SMALL
GASTEIGER
Energy = 0

@<TRIPOS>ATOM
      1 C           1.7462    0.9247    0.0000 C.3     1  LIG1        0.0162
      2 N           1.0317    0.5122    0.0000 N.ar    1  LIG1       -0.3001
      3 C           0.3173    0.9247    0.0000 C.ar    1  LIG1        0.0370
      4 C          -0.3972    0.5122    0.0000 C.ar    1  LIG1        0.1128
      5 N          -1.1818    0.7671    0.0000 N.ar    1  LIG1       -0.2443
      6 C          -1.6667    0.0997    0.0000 C.ar    1  LIG1        0.0675
      7 S          -1.1818   -0.5677    0.0000 S.2     1  LIG1       -0.0557
      8 C          -0.3972   -0.3128    0.0000 C.ar    1  LIG1        0.1346
      9 N           0.3173   -0.7253    0.0000 N.ar    1  LIG1       -0.1841
     10 C           1.0317   -0.3128    0.0000 C.ar    1  LIG1        0.3493
     11 O           1.7462   -0.7253    0.0000 O.2     1  LIG1       -0.2445
     12 H           1.5385    2.0456    0.0000 H       1  LIG1        0.0457
     13 H           2.3672    0.6384   -0.9121 H       1  LIG1        0.0457
     14 H           2.3359    0.6529    0.9370 H       1  LIG1        0.0457
     15 H           0.3173    2.0262    0.0000 H       1  LIG1        0.0833
     16 H          -2.7682    0.0997    0.0000 H       1  LIG1        0.0908
@<TRIPOS>BOND
     1     1     2    1
     2     2     3   ar
     3     3     4   ar
     4     4     5   ar
     5     5     6   ar
     6     6     7   ar
     7     7     8   ar
     8     4     8   ar
     9     8     9   ar
    10     9    10   ar
    11     2    10   ar
    12    10    11    2
    13     1    12    1
    14     1    13    1
    15     1    14    1
    16     3    15    1
    17     6    16    1
