@<TRIPOS>MOLECULE
Cn1nc2ccncc2n1
 16 17 0 0 0
SMALL
GASTEIGER
Energy = 0

@<TRIPOS>ATOM
      1 C           2.0120    0.0064    0.0000 C.3     1  LIG1        0.0499
      2 N           1.1870    0.0064    0.0000 N.ar    1  LIG1       -0.1853
      3 N           0.7020    0.6739    0.0000 N.ar    1  LIG1       -0.1523
      4 C          -0.0826    0.4189    0.0000 C.ar    1  LIG1        0.1157
      5 C          -0.7971    0.8314    0.0000 C.ar    1  LIG1       -0.0143
      6 C          -1.5115    0.4189    0.0000 C.ar    1  LIG1        0.0298
      7 N          -1.5115   -0.4061    0.0000 N.ar    1  LIG1       -0.2610
      8 C          -0.7971   -0.8186    0.0000 C.ar    1  LIG1        0.0568
      9 C          -0.0826   -0.4061    0.0000 C.ar    1  LIG1        0.1307
     10 N           0.7020   -0.6610    0.0000 N.ar    1  LIG1       -0.1508
     11 H           2.3925    1.0810    0.0000 H       1  LIG1        0.0490
     12 H           2.4067   -0.5521   -0.9121 H       1  LIG1        0.0490
     13 H           2.3867   -0.5238    0.9370 H       1  LIG1        0.0490
     14 H          -0.7971    1.9329    0.0000 H       1  LIG1        0.0655
     15 H          -2.4654    0.9696    0.0000 H       1  LIG1        0.0830
     16 H          -0.7971   -1.9201    0.0000 H       1  LIG1        0.0852
@<TRIPOS>BOND
     1     1     2    1
     2     2     3   ar
     3     3     4   ar
     4     4     5   ar
     5     5     6   ar
     6     6     7   ar
     7     7     8   ar
     8     8     9   ar
     9     4     9   ar
    10     9    10   ar
    11     2    10   ar
    12     1    11    1
    13     1    12    1
    14     1    13    1
    15     5    14    1
    16     6    15    1
    17     8    16    1
