@<TRIPOS>MOLECULE
c1onc2ncncc12
 12 13 0 0 0
SMALL
GASTEIGER
Energy = 0

@<TRIPOS>ATOM
      1 O           1.3969    0.0183    0.0000 O.2     1  LIG1       -0.3602
      2 C           0.9120    0.6857    0.0000 C.ar    1  LIG1        0.1350
      3 C           0.1274    0.4308    0.0000 C.ar    1  LIG1        0.0778
      4 C          -0.5871    0.8433    0.0000 C.ar    1  LIG1        0.0431
      5 N          -1.3016    0.4308    0.0000 N.ar    1  LIG1       -0.2429
      6 C          -1.3016   -0.3942    0.0000 C.ar    1  LIG1        0.1184
      7 N          -0.5871   -0.8067    0.0000 N.ar    1  LIG1       -0.2131
      8 C           0.1274   -0.3942    0.0000 C.ar    1  LIG1        0.2050
      9 N           0.9120   -0.6492    0.0000 N.ar    1  LIG1       -0.0581
     10 H           1.2524    1.7333    0.0000 H       1  LIG1        0.1065
     11 H          -0.5871    1.9448    0.0000 H       1  LIG1        0.0838
     12 H          -2.2555   -0.9450    0.0000 H       1  LIG1        0.1047
@<TRIPOS>BOND
     1     1     2   ar
     2     2     3   ar
     3     3     4   ar
     4     4     5   ar
     5     5     6   ar
     6     6     7   ar
     7     7     8   ar
     8     3     8   ar
     9     8     9   ar
    10     1     9   ar
    11     2    10    1
    12     4    11    1
    13     6    12    1
