@<TRIPOS>MOLECULE
Cn1cnc(=O)c2ncoc12
 16 17 0 0 0
SMALL
GASTEIGER
Energy = 0

@<TRIPOS>ATOM
      1 C          -0.4613   -1.6803    0.0000 C.3     1  LIG1        0.0160
      2 N          -0.4613   -0.8553    0.0000 N.ar    1  LIG1       -0.3038
      3 C          -1.1758   -0.4428    0.0000 C.ar    1  LIG1        0.1023
      4 N          -1.1758    0.3822    0.0000 N.ar    1  LIG1       -0.1974
      5 C          -0.4613    0.7947    0.0000 C.ar    1  LIG1        0.3023
      6 O          -0.4613    1.6197    0.0000 O.2     1  LIG1       -0.2633
      7 C           0.2532    0.3822    0.0000 C.ar    1  LIG1        0.1930
      8 C           0.2532   -0.4428    0.0000 C.ar    1  LIG1        0.2347
      9 O           1.0378   -0.6978    0.0000 O.2     1  LIG1       -0.4259
     10 C           1.5227   -0.0303    0.0000 C.ar    1  LIG1        0.1852
     11 N           1.0378    0.6371    0.0000 N.ar    1  LIG1       -0.2089
     12 H          -1.5359   -2.0608    0.0000 H       1  LIG1        0.0457
     13 H           0.0972   -2.0750    0.9121 H       1  LIG1        0.0457
     14 H           0.0689   -2.0550   -0.9370 H       1  LIG1        0.0457
     15 H          -2.1297   -0.9936    0.0000 H       1  LIG1        0.1031
     16 H           2.6242   -0.0303    0.0000 H       1  LIG1        0.1256
@<TRIPOS>BOND
     1     1     2    1
     2     2     3   ar
     3     3     4   ar
     4     4     5   ar
     5     5     6    2
     6     5     7   ar
     7     7     8   ar
     8     2     8   ar
     9     8     9   ar
    10     9    10   ar
    11    10    11   ar
    12     7    11   ar
    13     1    12    1
    14     1    13    1
    15     1    14    1
    16     3    15    1
    17    10    16    1
