@<TRIPOS>MOLECULE
Cn1cccc2cnc(=O)nc12
 19 20 0 0 0
SMALL
GASTEIGER
Energy = 0

@<TRIPOS>ATOM
      1 C           0.8998   -1.4197    0.0000 C.3     1  LIG1        0.0132
      2 N           0.8998   -0.5947    0.0000 N.ar    1  LIG1       -0.3348
      3 C           1.6143   -0.1822    0.0000 C.ar    1  LIG1        0.0061
      4 C           1.6143    0.6428    0.0000 C.ar    1  LIG1       -0.0448
      5 C           0.8998    1.0553    0.0000 C.ar    1  LIG1       -0.0483
      6 C           0.1854    0.6428    0.0000 C.ar    1  LIG1        0.0359
      7 C          -0.5291    1.0553    0.0000 C.ar    1  LIG1        0.0437
      8 N          -1.2436    0.6428    0.0000 N.ar    1  LIG1       -0.1992
      9 C          -1.2436   -0.1822    0.0000 C.ar    1  LIG1        0.3695
     10 O          -1.9581   -0.5947    0.0000 O.2     1  LIG1       -0.2426
     11 N          -0.5291   -0.5947    0.0000 N.ar    1  LIG1       -0.1735
     12 C           0.1854   -0.1822    0.0000 C.ar    1  LIG1        0.1474
     13 H           1.9744   -1.8002    0.0000 H       1  LIG1        0.0456
     14 H           0.3413   -1.8144   -0.9121 H       1  LIG1        0.0456
     15 H           0.3696   -1.7944    0.9370 H       1  LIG1        0.0456
     16 H           2.5682   -0.7330    0.0000 H       1  LIG1        0.0809
     17 H           2.5682    1.1936    0.0000 H       1  LIG1        0.0632
     18 H           0.8998    2.1568    0.0000 H       1  LIG1        0.0625
     19 H          -0.5291    2.1568    0.0000 H       1  LIG1        0.0838
@<TRIPOS>BOND
     1     1     2    1
     2     2     3   ar
     3     3     4   ar
     4     4     5   ar
     5     5     6   ar
     6     6     7   ar
     7     7     8   ar
     8     8     9   ar
     9     9    10    2
    10     9    11   ar
    11    11    12   ar
    12     2    12   ar
    13     6    12   ar
    14     1    13    1
    15     1    14    1
    16     1    15    1
    17     3    16    1
    18     4    17    1
    19     5    18    1
    20     7    19    1
