@<TRIPOS>MOLECULE
Cn1ccc2nnncc12
 16 17 0 0 0
SMALL
GASTEIGER
Energy = 0

@<TRIPOS>ATOM
      1 C           1.1213   -1.3184    0.0000 C.3     1  LIG1        0.0120
      2 N           0.8664   -0.5337    0.0000 N.ar    1  LIG1       -0.3472
      3 C           1.3513    0.1337    0.0000 C.ar    1  LIG1        0.0070
      4 C           0.8664    0.8011    0.0000 C.ar    1  LIG1       -0.0163
      5 C           0.0817    0.5462    0.0000 C.ar    1  LIG1        0.1141
      6 N          -0.6327    0.9587    0.0000 N.ar    1  LIG1       -0.1278
      7 N          -1.3472    0.5462    0.0000 N.ar    1  LIG1       -0.0427
      8 N          -1.3472   -0.2788    0.0000 N.ar    1  LIG1       -0.1357
      9 C          -0.6327   -0.6913    0.0000 C.ar    1  LIG1        0.0772
     10 C           0.0817   -0.2788    0.0000 C.ar    1  LIG1        0.0892
     11 H           2.2609   -1.3483    0.0000 H       1  LIG1        0.0456
     12 H           0.7121   -1.8663   -0.9121 H       1  LIG1        0.0456
     13 H           0.7328   -1.8386    0.9370 H       1  LIG1        0.0456
     14 H           2.4528    0.1337    0.0000 H       1  LIG1        0.0810
     15 H           1.2068    1.8487    0.0000 H       1  LIG1        0.0654
     16 H          -0.6327   -1.7928    0.0000 H       1  LIG1        0.0870
@<TRIPOS>BOND
     1     1     2    1
     2     2     3   ar
     3     3     4   ar
     4     4     5   ar
     5     5     6   ar
     6     6     7   ar
     7     7     8   ar
     8     8     9   ar
     9     9    10   ar
    10     2    10   ar
    11     5    10   ar
    12     1    11    1
    13     1    12    1
    14     1    13    1
    15     3    14    1
    16     4    15    1
    17     9    16    1
