@<TRIPOS>MOLECULE
c1conn1
 7 7 0 0 0
SMALL
GASTEIGER
Energy = 0

@<TRIPOS>ATOM
      1 O          -0.1772   -0.6479    0.0000 O.2     1  LIG1       -0.3443
      2 C           0.6074   -0.3930    0.0000 C.ar    1  LIG1        0.1443
      3 C           0.6074    0.4320    0.0000 C.ar    1  LIG1        0.0904
      4 N          -0.1772    0.6870    0.0000 N.ar    1  LIG1       -0.1194
      5 N          -0.6621    0.0195    0.0000 N.ar    1  LIG1        0.0336
      6 H           1.4985   -1.0405    0.0000 H       1  LIG1        0.1074
      7 H           1.4986    1.0794    0.0000 H       1  LIG1        0.0881
@<TRIPOS>BOND
     1     1     2   ar
     2     2     3   ar
     3     3     4   ar
     4     4     5   ar
     5     1     5   ar
     6     2     6    1
     7     3     7    1
