@<TRIPOS>MOLECULE
c1cc2cc[nH]n2c1
 14 15 0 0 0
SMALL
GASTEIGER
Energy = 0

@<TRIPOS>ATOM
      1 N           0.7690   -0.6459    0.0000 N.ar    1  LIG1       -0.3004
      2 C           1.2539    0.0215    0.0000 C.ar    1  LIG1        0.0213
      3 C           0.7690    0.6890    0.0000 C.ar    1  LIG1       -0.0189
      4 C          -0.0156    0.4340    0.0000 C.ar    1  LIG1        0.0647
      5 C          -0.8003    0.6890    0.0000 C.ar    1  LIG1       -0.0349
      6 C          -1.2852    0.0215    0.0000 C.ar    1  LIG1       -0.0416
      7 C          -0.8003   -0.6459    0.0000 C.ar    1  LIG1        0.0277
      8 N          -0.0156   -0.3910    0.0000 N.ar    1  LIG1       -0.2625
      9 H           1.1035   -1.6754    0.0000 H       1  LIG1        0.1866
     10 H           2.3554    0.0215    0.0000 H       1  LIG1        0.0823
     11 H           1.1094    1.7366    0.0000 H       1  LIG1        0.0654
     12 H          -1.1407    1.7366    0.0000 H       1  LIG1        0.0639
     13 H          -2.3867    0.0215    0.0000 H       1  LIG1        0.0633
     14 H          -1.1407   -1.6935    0.0000 H       1  LIG1        0.0829
@<TRIPOS>BOND
     1     1     2   ar
     2     2     3   ar
     3     3     4   ar
     4     4     5   ar
     5     5     6   ar
     6     6     7   ar
     7     7     8   ar
     8     1     8   ar
     9     4     8   ar
    10     1     9    1
    11     2    10    1
    12     3    11    1
    13     5    12    1
    14     6    13    1
    15     7    14    1
