@<TRIPOS>MOLECULE
O=c1[nH]ccc2nocc12
 14 15 0 0 0
SMALL
GASTEIGER
Energy = 0

@<TRIPOS>ATOM
      1 O           0.5248   -1.4540    0.0000 O.2     1  LIG1       -0.2671
      2 C           0.5248   -0.6290    0.0000 C.ar    1  LIG1        0.2611
      3 N           1.2393   -0.2165    0.0000 N.ar    1  LIG1       -0.3284
      4 C           1.2393    0.6085    0.0000 C.ar    1  LIG1        0.0071
      5 C           0.5248    1.0210    0.0000 C.ar    1  LIG1       -0.0162
      6 C          -0.1896    0.6085    0.0000 C.ar    1  LIG1        0.1199
      7 N          -0.9742    0.8635    0.0000 N.ar    1  LIG1       -0.0781
      8 O          -1.4592    0.1960    0.0000 O.2     1  LIG1       -0.3616
      9 C          -0.9742   -0.4714    0.0000 C.ar    1  LIG1        0.1371
     10 C          -0.1896   -0.2165    0.0000 C.ar    1  LIG1        0.1051
     11 H           2.1768   -0.7578    0.0000 H       1  LIG1        0.1683
     12 H           2.1932    1.1593    0.0000 H       1  LIG1        0.0808
     13 H           0.5248    2.1225    0.0000 H       1  LIG1        0.0654
     14 H          -1.3145   -1.5190    0.0000 H       1  LIG1        0.1065
@<TRIPOS>BOND
     1     1     2    2
     2     2     3   ar
     3     3     4   ar
     4     4     5   ar
     5     5     6   ar
     6     6     7   ar
     7     7     8   ar
     8     8     9   ar
     9     9    10   ar
    10     2    10   ar
    11     6    10   ar
    12     3    11    1
    13     4    12    1
    14     5    13    1
    15     9    14    1
