@<TRIPOS>MOLECULE
c1cnnnc1
 9 9 0 0 0
SMALL
GASTEIGER
Energy = 0

@<TRIPOS>ATOM
      1 C          -0.0000   -0.8672    0.0000 C.ar    1  LIG1       -0.0219
      2 C           0.7145   -0.4547    0.0000 C.ar    1  LIG1        0.0531
      3 N           0.7145    0.3703    0.0000 N.ar    1  LIG1       -0.1378
      4 N           0.0000    0.7828    0.0000 N.ar    1  LIG1       -0.0434
      5 N          -0.7145    0.3703    0.0000 N.ar    1  LIG1       -0.1378
      6 C          -0.7145   -0.4547    0.0000 C.ar    1  LIG1        0.0531
      7 H           0.0000   -1.9687    0.0000 H       1  LIG1        0.0649
      8 H           1.6684   -1.0055    0.0000 H       1  LIG1        0.0849
      9 H          -1.6684   -1.0055    0.0000 H       1  LIG1        0.0849
@<TRIPOS>BOND
     1     1     2   ar
     2     2     3   ar
     3     3     4   ar
     4     4     5   ar
     5     5     6   ar
     6     1     6   ar
     7     1     7    1
     8     2     8    1
     9     6     9    1
