@<TRIPOS>MOLECULE
c1ccc2nccnc2c1
 16 17 0 0 0
SMALL
GASTEIGER
Energy = 0

@<TRIPOS>ATOM
      1 C           1.4519   -0.4125    0.0000 C.ar    1  LIG1       -0.0596
      2 C           1.4519    0.4125    0.0000 C.ar    1  LIG1       -0.0596
      3 C           0.7375    0.8250    0.0000 C.ar    1  LIG1       -0.0342
      4 C           0.0230    0.4125    0.0000 C.ar    1  LIG1        0.0892
      5 N          -0.6915    0.8250    0.0000 N.ar    1  LIG1       -0.2519
      6 C          -1.4060    0.4125    0.0000 C.ar    1  LIG1        0.0464
      7 C          -1.4060   -0.4125    0.0000 C.ar    1  LIG1        0.0464
      8 N          -0.6915   -0.8250    0.0000 N.ar    1  LIG1       -0.2519
      9 C           0.0230   -0.4125    0.0000 C.ar    1  LIG1        0.0892
     10 C           0.7375   -0.8250    0.0000 C.ar    1  LIG1       -0.0342
     11 H           2.4058   -0.9632    0.0000 H       1  LIG1        0.0618
     12 H           2.4058    0.9632    0.0000 H       1  LIG1        0.0618
     13 H           0.7375    1.9265    0.0000 H       1  LIG1        0.0639
     14 H          -2.3599    0.9633    0.0000 H       1  LIG1        0.0845
     15 H          -2.3599   -0.9633    0.0000 H       1  LIG1        0.0845
     16 H           0.7375   -1.9265    0.0000 H       1  LIG1        0.0639
@<TRIPOS>BOND
     1     1     2   ar
     2     2     3   ar
     3     3     4   ar
     4     4     5   ar
     5     5     6   ar
     6     6     7   ar
     7     7     8   ar
     8     8     9   ar
     9     4     9   ar
    10     9    10   ar
    11     1    10   ar
    12     1    11    1
    13     2    12    1
    14     3    13    1
    15     6    14    1
    16     7    15    1
    17    10    16    1
