@<TRIPOS>MOLECULE
O=c1nc2ccccn2[nH]1
 15 16 0 0 0
SMALL
GASTEIGER
Energy = 0

@<TRIPOS>ATOM
      1 O           1.9465   -0.0063    0.0000 O.2     1  LIG1       -0.2432
      2 C           1.1215   -0.0063    0.0000 C.ar    1  LIG1        0.3627
      3 N           0.6366    0.6611    0.0000 N.ar    1  LIG1       -0.2414
      4 N          -0.1480    0.4062    0.0000 N.ar    1  LIG1       -0.2403
      5 C          -0.8625    0.8187    0.0000 C.ar    1  LIG1        0.0295
      6 C          -1.5769    0.4062    0.0000 C.ar    1  LIG1       -0.0435
      7 C          -1.5769   -0.4188    0.0000 C.ar    1  LIG1       -0.0568
      8 C          -0.8625   -0.8313    0.0000 C.ar    1  LIG1       -0.0173
      9 C          -0.1480   -0.4188    0.0000 C.ar    1  LIG1        0.1575
     10 N           0.6366   -0.6738    0.0000 N.ar    1  LIG1       -0.1729
     11 H           0.9711    1.6906    0.0000 H       1  LIG1        0.1921
     12 H          -0.8625    1.9202    0.0000 H       1  LIG1        0.0830
     13 H          -2.5308    0.9569    0.0000 H       1  LIG1        0.0633
     14 H          -2.5308   -0.9695    0.0000 H       1  LIG1        0.0619
     15 H          -0.8625   -1.9328    0.0000 H       1  LIG1        0.0655
@<TRIPOS>BOND
     1     1     2    2
     2     2     3   ar
     3     3     4   ar
     4     4     5   ar
     5     5     6   ar
     6     6     7   ar
     7     7     8   ar
     8     8     9   ar
     9     4     9   ar
    10     9    10   ar
    11     2    10   ar
    12     3    11    1
    13     5    12    1
    14     6    13    1
    15     7    14    1
    16     8    15    1
