@<TRIPOS>MOLECULE
c1cnc2nnccc2n1
 14 15 0 0 0
SMALL
GASTEIGER
Energy = 0

@<TRIPOS>ATOM
      1 C           1.4401   -0.4318    0.0000 C.ar    1  LIG1        0.0465
      2 C           1.4401    0.3932    0.0000 C.ar    1  LIG1        0.0481
      3 N           0.7256    0.8057    0.0000 N.ar    1  LIG1       -0.2315
      4 C           0.0111    0.3932    0.0000 C.ar    1  LIG1        0.2002
      5 N          -0.7033    0.8057    0.0000 N.ar    1  LIG1       -0.1276
      6 N          -1.4178    0.3932    0.0000 N.ar    1  LIG1       -0.1555
      7 C          -1.4178   -0.4318    0.0000 C.ar    1  LIG1        0.0521
      8 C          -0.7033   -0.8443    0.0000 C.ar    1  LIG1       -0.0128
      9 C           0.0111   -0.4318    0.0000 C.ar    1  LIG1        0.1111
     10 N           0.7256   -0.8443    0.0000 N.ar    1  LIG1       -0.2502
     11 H           2.3940   -0.9826    0.0000 H       1  LIG1        0.0845
     12 H           2.3940    0.9440    0.0000 H       1  LIG1        0.0846
     13 H          -2.3717   -0.9826    0.0000 H       1  LIG1        0.0849
     14 H          -0.7033   -1.9458    0.0000 H       1  LIG1        0.0656
@<TRIPOS>BOND
     1     1     2   ar
     2     2     3   ar
     3     3     4   ar
     4     4     5   ar
     5     5     6   ar
     6     6     7   ar
     7     7     8   ar
     8     8     9   ar
     9     4     9   ar
    10     9    10   ar
    11     1    10   ar
    12     1    11    1
    13     2    12    1
    14     7    13    1
    15     8    14    1
