@<TRIPOS>MOLECULE
Cn1ccn2cnc(=O)nc12
 17 18 0 0 0
SMALL
GASTEIGER
Energy = 0

@<TRIPOS>ATOM
      1 C           1.3304   -1.2302    0.0000 C.3     1  LIG1        0.0146
      2 N           1.0755   -0.4456    0.0000 N.ar    1  LIG1       -0.3194
      3 C           1.5604    0.2219    0.0000 C.ar    1  LIG1        0.0241
      4 C           1.0755    0.8893    0.0000 C.ar    1  LIG1        0.0301
      5 N           0.2909    0.6344    0.0000 N.ar    1  LIG1       -0.2756
      6 C          -0.4236    1.0469    0.0000 C.ar    1  LIG1        0.1081
      7 N          -1.1381    0.6344    0.0000 N.ar    1  LIG1       -0.1814
      8 C          -1.1381   -0.1906    0.0000 C.ar    1  LIG1        0.3720
      9 O          -1.8525   -0.6031    0.0000 O.2     1  LIG1       -0.2425
     10 N          -0.4236   -0.6031    0.0000 N.ar    1  LIG1       -0.1565
     11 C           0.2909   -0.1906    0.0000 C.ar    1  LIG1        0.2206
     12 H           2.4700   -1.2601    0.0000 H       1  LIG1        0.0457
     13 H           0.9212   -1.7781   -0.9121 H       1  LIG1        0.0457
     14 H           0.9419   -1.7504    0.9370 H       1  LIG1        0.0457
     15 H           2.6619    0.2219    0.0000 H       1  LIG1        0.0825
     16 H           1.4159    1.9369    0.0000 H       1  LIG1        0.0829
     17 H          -0.4236    2.1484    0.0000 H       1  LIG1        0.1035
@<TRIPOS>BOND
     1     1     2    1
     2     2     3   ar
     3     3     4   ar
     4     4     5   ar
     5     5     6   ar
     6     6     7   ar
     7     7     8   ar
     8     8     9    2
     9     8    10   ar
    10    10    11   ar
    11     2    11   ar
    12     5    11   ar
    13     1    12    1
    14     1    13    1
    15     1    14    1
    16     3    15    1
    17     4    16    1
    18     6    17    1
