@<TRIPOS>MOLECULE
O=c1cc2ccsc2c[nH]1
 15 16 0 0 0
SMALL
GASTEIGER
Energy = 0

@<TRIPOS>ATOM
      1 O           1.8779   -0.8319    0.0000 O.2     1  LIG1       -0.2679
      2 C           1.1634   -0.4194    0.0000 C.ar    1  LIG1        0.2493
      3 N           1.1634    0.4056    0.0000 N.ar    1  LIG1       -0.3280
      4 C           0.4490    0.8181    0.0000 C.ar    1  LIG1        0.0192
      5 C          -0.2655    0.4056    0.0000 C.ar    1  LIG1        0.0355
      6 S          -1.0501    0.6605    0.0000 S.2     1  LIG1       -0.0952
      7 C          -1.5350   -0.0069    0.0000 C.ar    1  LIG1       -0.0231
      8 C          -1.0501   -0.6743    0.0000 C.ar    1  LIG1       -0.0468
      9 C          -0.2655   -0.4194    0.0000 C.ar    1  LIG1       -0.0043
     10 C           0.4490   -0.8319    0.0000 C.ar    1  LIG1        0.0110
     11 H           2.1009    0.9468    0.0000 H       1  LIG1        0.1684
     12 H           0.4490    1.9196    0.0000 H       1  LIG1        0.0819
     13 H          -2.6365   -0.0069    0.0000 H       1  LIG1        0.0694
     14 H          -1.3905   -1.7219    0.0000 H       1  LIG1        0.0629
     15 H           0.4490   -1.9334    0.0000 H       1  LIG1        0.0678
@<TRIPOS>BOND
     1     1     2    2
     2     2     3   ar
     3     3     4   ar
     4     4     5   ar
     5     5     6   ar
     6     6     7   ar
     7     7     8   ar
     8     8     9   ar
     9     5     9   ar
    10     9    10   ar
    11     2    10   ar
    12     3    11    1
    13     4    12    1
    14     7    13    1
    15     8    14    1
    16    10    15    1
