@<TRIPOS>MOLECULE
O=c1[nH]ccn2cnnc12
 14 15 0 0 0
SMALL
GASTEIGER
Energy = 0

@<TRIPOS>ATOM
      1 O           0.5057   -1.4400    0.0000 O.2     1  LIG1       -0.2638
      2 C           0.5057   -0.6150    0.0000 C.ar    1  LIG1        0.2936
      3 N           1.2202   -0.2025    0.0000 N.ar    1  LIG1       -0.3247
      4 C           1.2202    0.6225    0.0000 C.ar    1  LIG1        0.0216
      5 C           0.5057    1.0350    0.0000 C.ar    1  LIG1        0.0288
      6 N          -0.2088    0.6225    0.0000 N.ar    1  LIG1       -0.2832
      7 C          -0.9934    0.8774    0.0000 C.ar    1  LIG1        0.1243
      8 N          -1.4783    0.2100    0.0000 N.ar    1  LIG1       -0.1370
      9 N          -0.9934   -0.4575    0.0000 N.ar    1  LIG1       -0.1240
     10 C          -0.2088   -0.2025    0.0000 C.ar    1  LIG1        0.2258
     11 H           2.1577   -0.7438    0.0000 H       1  LIG1        0.1685
     12 H           2.1741    1.1733    0.0000 H       1  LIG1        0.0823
     13 H           0.5057    2.1365    0.0000 H       1  LIG1        0.0828
     14 H          -1.3338    1.9250    0.0000 H       1  LIG1        0.1052
@<TRIPOS>BOND
     1     1     2    2
     2     2     3   ar
     3     3     4   ar
     4     4     5   ar
     5     5     6   ar
     6     6     7   ar
     7     7     8   ar
     8     8     9   ar
     9     9    10   ar
    10     2    10   ar
    11     6    10   ar
    12     3    11    1
    13     4    12    1
    14     5    13    1
    15     7    14    1
