@<TRIPOS>MOLECULE
c1nc2ncnnc2o1
 11 12 0 0 0
SMALL
GASTEIGER
Energy = 0

@<TRIPOS>ATOM
      1 O           0.9379   -0.6495    0.0000 O.2     1  LIG1       -0.4222
      2 C           1.4228    0.0179    0.0000 C.ar    1  LIG1        0.1866
      3 N           0.9379    0.6854    0.0000 N.ar    1  LIG1       -0.1949
      4 C           0.1533    0.4304    0.0000 C.ar    1  LIG1        0.2216
      5 N          -0.5612    0.8429    0.0000 N.ar    1  LIG1       -0.2099
      6 C          -1.2757    0.4304    0.0000 C.ar    1  LIG1        0.1408
      7 N          -1.2757   -0.3946    0.0000 N.ar    1  LIG1       -0.1341
      8 N          -0.5612   -0.8071    0.0000 N.ar    1  LIG1       -0.1057
      9 C           0.1533   -0.3946    0.0000 C.ar    1  LIG1        0.2856
     10 H           2.5243    0.0179    0.0000 H       1  LIG1        0.1256
     11 H          -2.2296    0.9812    0.0000 H       1  LIG1        0.1066
@<TRIPOS>BOND
     1     1     2   ar
     2     2     3   ar
     3     3     4   ar
     4     4     5   ar
     5     5     6   ar
     6     6     7   ar
     7     7     8   ar
     8     8     9   ar
     9     1     9   ar
    10     4     9   ar
    11     2    10    1
    12     6    11    1
