@<TRIPOS>MOLECULE
Cn1nnc2cnncc12
 15 16 0 0 0
SMALL
GASTEIGER
Energy = 0

@<TRIPOS>ATOM
      1 C           1.0776   -1.3180    0.0000 C.3     1  LIG1        0.0326
      2 N           0.8226   -0.5334    0.0000 N.ar    1  LIG1       -0.2454
      3 N           1.3076    0.1341    0.0000 N.ar    1  LIG1       -0.0647
      4 N           0.8226    0.8015    0.0000 N.ar    1  LIG1       -0.1278
      5 C           0.0380    0.5466    0.0000 C.ar    1  LIG1        0.1339
      6 C          -0.6765    0.9591    0.0000 C.ar    1  LIG1        0.0792
      7 N          -1.3909    0.5466    0.0000 N.ar    1  LIG1       -0.1554
      8 N          -1.3909   -0.2784    0.0000 N.ar    1  LIG1       -0.1555
      9 C          -0.6765   -0.6909    0.0000 C.ar    1  LIG1        0.0771
     10 C           0.0380   -0.2784    0.0000 C.ar    1  LIG1        0.1099
     11 H           2.2172   -1.3478    0.0000 H       1  LIG1        0.0473
     12 H           0.6685   -1.8660   -0.9121 H       1  LIG1        0.0473
     13 H           0.6891   -1.8383    0.9370 H       1  LIG1        0.0473
     14 H          -0.6765    2.0606    0.0000 H       1  LIG1        0.0871
     15 H          -0.6765   -1.7924    0.0000 H       1  LIG1        0.0870
@<TRIPOS>BOND
     1     1     2    1
     2     2     3   ar
     3     3     4   ar
     4     4     5   ar
     5     5     6   ar
     6     6     7   ar
     7     7     8   ar
     8     8     9   ar
     9     9    10   ar
    10     2    10   ar
    11     5    10   ar
    12     1    11    1
    13     1    12    1
    14     1    13    1
    15     6    14    1
    16     9    15    1
