@<TRIPOS>MOLECULE
Cn1ccn2cccc12
 17 18 0 0 0
SMALL
GASTEIGER
Energy = 0

@<TRIPOS>ATOM
      1 C           0.9142   -1.2919    0.0000 C.3     1  LIG1        0.0132
      2 N           0.6593   -0.5073    0.0000 N.ar    1  LIG1       -0.3351
      3 C           1.1442    0.1601    0.0000 C.ar    1  LIG1        0.0226
      4 C           0.6593    0.8276    0.0000 C.ar    1  LIG1        0.0272
      5 N          -0.1254    0.5726    0.0000 N.ar    1  LIG1       -0.3080
      6 C          -0.9100    0.8276    0.0000 C.ar    1  LIG1        0.0112
      7 C          -1.3949    0.1601    0.0000 C.ar    1  LIG1       -0.0418
      8 C          -0.9100   -0.5073    0.0000 C.ar    1  LIG1       -0.0191
      9 C          -0.1254   -0.2524    0.0000 C.ar    1  LIG1        0.1177
     10 H           2.0538   -1.3218    0.0000 H       1  LIG1        0.0456
     11 H           0.5050   -1.8398   -0.9121 H       1  LIG1        0.0456
     12 H           0.5257   -1.8121    0.9370 H       1  LIG1        0.0456
     13 H           2.2457    0.1601    0.0000 H       1  LIG1        0.0824
     14 H           0.9997    1.8752    0.0000 H       1  LIG1        0.0828
     15 H          -1.2504    1.8752    0.0000 H       1  LIG1        0.0813
     16 H          -2.4964    0.1601    0.0000 H       1  LIG1        0.0633
     17 H          -1.2504   -1.5549    0.0000 H       1  LIG1        0.0654
@<TRIPOS>BOND
     1     1     2    1
     2     2     3   ar
     3     3     4   ar
     4     4     5   ar
     5     5     6   ar
     6     6     7   ar
     7     7     8   ar
     8     8     9   ar
     9     2     9   ar
    10     5     9   ar
    11     1    10    1
    12     1    11    1
    13     1    12    1
    14     3    13    1
    15     4    14    1
    16     6    15    1
    17     7    16    1
    18     8    17    1
