@<TRIPOS>MOLECULE
Cn1cnc2nccc2n1
 16 17 0 0 0
SMALL
GASTEIGER
Energy = 0

@<TRIPOS>ATOM
      1 C           1.7743   -0.7516    0.0000 C.3     1  LIG1        0.0319
      2 N           1.0599   -0.3391    0.0000 N.ar    1  LIG1       -0.2558
      3 C           1.0599    0.4859    0.0000 C.ar    1  LIG1        0.1146
      4 N           0.3454    0.8984    0.0000 N.ar    1  LIG1       -0.2149
      5 C          -0.3691    0.4859    0.0000 C.ar    1  LIG1        0.1815
      6 N          -1.1537    0.7408    0.0000 N.ar    1  LIG1       -0.2343
      7 C          -1.6386    0.0734    0.0000 C.ar    1  LIG1        0.0322
      8 C          -1.1537   -0.5941    0.0000 C.ar    1  LIG1       -0.0128
      9 C          -0.3691   -0.3391    0.0000 C.ar    1  LIG1        0.1296
     10 N           0.3454   -0.7516    0.0000 N.ar    1  LIG1       -0.1670
     11 H           2.6412   -0.0113    0.0000 H       1  LIG1        0.0473
     12 H           1.8368   -1.4326   -0.9121 H       1  LIG1        0.0473
     13 H           1.8337   -1.3982    0.9370 H       1  LIG1        0.0473
     14 H           2.0138    1.0367    0.0000 H       1  LIG1        0.1044
     15 H          -2.7401    0.0734    0.0000 H       1  LIG1        0.0831
     16 H          -1.4941   -1.6417    0.0000 H       1  LIG1        0.0656
@<TRIPOS>BOND
     1     1     2    1
     2     2     3   ar
     3     3     4   ar
     4     4     5   ar
     5     5     6   ar
     6     6     7   ar
     7     7     8   ar
     8     8     9   ar
     9     5     9   ar
    10     9    10   ar
    11     2    10   ar
    12     1    11    1
    13     1    12    1
    14     1    13    1
    15     3    14    1
    16     7    15    1
    17     8    16    1
