@<TRIPOS>MOLECULE
Cn1ccc2nccc(=O)c2c1
 20 21 0 0 0
SMALL
GASTEIGER
Energy = 0

@<TRIPOS>ATOM
      1 C           2.0399   -0.5917    0.0000 C.3     1  LIG1        0.0113
      2 N           1.3255   -0.1792    0.0000 N.ar    1  LIG1       -0.3554
      3 C           1.3255    0.6458    0.0000 C.ar    1  LIG1        0.0063
      4 C           0.6110    1.0583    0.0000 C.ar    1  LIG1       -0.0194
      5 C          -0.1035    0.6458    0.0000 C.ar    1  LIG1        0.0774
      6 N          -0.8179    1.0583    0.0000 N.ar    1  LIG1       -0.2546
      7 C          -1.5324    0.6458    0.0000 C.ar    1  LIG1        0.0319
      8 C          -1.5324   -0.1792    0.0000 C.ar    1  LIG1        0.0039
      9 C          -0.8179   -0.5917    0.0000 C.ar    1  LIG1        0.1909
     10 O          -0.8179   -1.4167    0.0000 O.2     1  LIG1       -0.2871
     11 C          -0.1035   -0.1792    0.0000 C.ar    1  LIG1        0.0631
     12 C           0.6110   -0.5917    0.0000 C.ar    1  LIG1        0.0171
     13 H           2.9068    0.1486    0.0000 H       1  LIG1        0.0455
     14 H           2.1024   -1.2727   -0.9121 H       1  LIG1        0.0455
     15 H           2.0993   -1.2383    0.9370 H       1  LIG1        0.0455
     16 H           2.2794    1.1966    0.0000 H       1  LIG1        0.0809
     17 H           0.6110    2.1598    0.0000 H       1  LIG1        0.0653
     18 H          -2.4863    1.1966    0.0000 H       1  LIG1        0.0831
     19 H          -2.4863   -0.7300    0.0000 H       1  LIG1        0.0671
     20 H           0.6110   -1.6932    0.0000 H       1  LIG1        0.0817
@<TRIPOS>BOND
     1     1     2    1
     2     2     3   ar
     3     3     4   ar
     4     4     5   ar
     5     5     6   ar
     6     6     7   ar
     7     7     8   ar
     8     8     9   ar
     9     9    10    2
    10     9    11   ar
    11     5    11   ar
    12    11    12   ar
    13     2    12   ar
    14     1    13    1
    15     1    14    1
    16     1    15    1
    17     3    16    1
    18     4    17    1
    19     7    18    1
    20     8    19    1
    21    12    20    1
