@<TRIPOS>MOLECULE
Cn1cnc2c(=O)[nH]ncc12
 17 18 0 0 0
SMALL
GASTEIGER
Energy = 0

@<TRIPOS>ATOM
      1 C           1.1708   -1.5142    0.0000 C.3     1  LIG1        0.0133
      2 N           0.9159   -0.7296    0.0000 N.ar    1  LIG1       -0.3318
      3 C           1.4008   -0.0622    0.0000 C.ar    1  LIG1        0.0970
      4 N           0.9159    0.6053    0.0000 N.ar    1  LIG1       -0.2302
      5 C           0.1312    0.3503    0.0000 C.ar    1  LIG1        0.1559
      6 C           0.1312   -0.4747    0.0000 C.ar    1  LIG1        0.0938
      7 C          -0.5832   -0.8872    0.0000 C.ar    1  LIG1        0.0736
      8 N          -1.2977   -0.4747    0.0000 N.ar    1  LIG1       -0.1772
      9 N          -1.2977    0.3503    0.0000 N.ar    1  LIG1       -0.2414
     10 C          -0.5832    0.7628    0.0000 C.ar    1  LIG1        0.2923
     11 O          -0.5832    1.5878    0.0000 O.2     1  LIG1       -0.2640
     12 H           2.3104   -1.5441    0.0000 H       1  LIG1        0.0456
     13 H           0.7616   -2.0621   -0.9121 H       1  LIG1        0.0456
     14 H           0.7823   -2.0344    0.9370 H       1  LIG1        0.0456
     15 H           2.5023   -0.0622    0.0000 H       1  LIG1        0.1029
     16 H          -0.5832   -1.9887    0.0000 H       1  LIG1        0.0869
     17 H          -2.2352    0.8916    0.0000 H       1  LIG1        0.1922
@<TRIPOS>BOND
     1     1     2    1
     2     2     3   ar
     3     3     4   ar
     4     4     5   ar
     5     5     6   ar
     6     2     6   ar
     7     6     7   ar
     8     7     8   ar
     9     8     9   ar
    10     9    10   ar
    11     5    10   ar
    12    10    11    2
    13     1    12    1
    14     1    13    1
    15     1    14    1
    16     3    15    1
    17     7    16    1
    18     9    17    1
