@<TRIPOS>MOLECULE
Cn1c(=O)ncc2nocc12
 16 17 0 0 0
SMALL
GASTEIGER
Energy = 0

@<TRIPOS>ATOM
      1 C           0.3180   -1.4275    0.0000 C.3     1  LIG1        0.0169
      2 N           0.3180   -0.6025    0.0000 N.ar    1  LIG1       -0.2908
      3 C           1.0325   -0.1900    0.0000 C.ar    1  LIG1        0.3488
      4 O           1.7470   -0.6025    0.0000 O.2     1  LIG1       -0.2445
      5 N           1.0325    0.6350    0.0000 N.ar    1  LIG1       -0.1991
      6 C           0.3180    1.0475    0.0000 C.ar    1  LIG1        0.0637
      7 C          -0.3965    0.6350    0.0000 C.ar    1  LIG1        0.1479
      8 N          -1.1811    0.8900    0.0000 N.ar    1  LIG1       -0.0753
      9 O          -1.6660    0.2225    0.0000 O.2     1  LIG1       -0.3602
     10 C          -1.1811   -0.4449    0.0000 C.ar    1  LIG1        0.1484
     11 C          -0.3965   -0.1900    0.0000 C.ar    1  LIG1        0.1137
     12 H           1.3926   -1.8080    0.0000 H       1  LIG1        0.0457
     13 H          -0.2405   -1.8222   -0.9121 H       1  LIG1        0.0457
     14 H          -0.2122   -1.8022    0.9370 H       1  LIG1        0.0457
     15 H           0.3180    2.1490    0.0000 H       1  LIG1        0.0855
     16 H          -1.5215   -1.4925    0.0000 H       1  LIG1        0.1079
@<TRIPOS>BOND
     1     1     2    1
     2     2     3   ar
     3     3     4    2
     4     3     5   ar
     5     5     6   ar
     6     6     7   ar
     7     7     8   ar
     8     8     9   ar
     9     9    10   ar
    10    10    11   ar
    11     2    11   ar
    12     7    11   ar
    13     1    12    1
    14     1    13    1
    15     1    14    1
    16     6    15    1
    17    10    16    1
