@<TRIPOS>MOLECULE
O=c1[nH]cc2c(=O)[nH]ccn12
 16 17 0 0 0
SMALL
GASTEIGER
Energy = 0

@<TRIPOS>ATOM
      1 O           1.1252   -1.4737    0.0000 O.2     1  LIG1       -0.2462
      2 C           0.8703   -0.6891    0.0000 C.ar    1  LIG1        0.3314
      3 N           1.3552   -0.0217    0.0000 N.ar    1  LIG1       -0.3119
      4 C           0.8703    0.6458    0.0000 C.ar    1  LIG1        0.0356
      5 C           0.0856    0.3908    0.0000 C.ar    1  LIG1        0.1311
      6 N           0.0856   -0.4342    0.0000 N.ar    1  LIG1       -0.2617
      7 C          -0.6288   -0.8467    0.0000 C.ar    1  LIG1        0.0309
      8 C          -1.3433   -0.4342    0.0000 C.ar    1  LIG1        0.0216
      9 N          -1.3433    0.3908    0.0000 N.ar    1  LIG1       -0.3260
     10 C          -0.6288    0.8033    0.0000 C.ar    1  LIG1        0.2743
     11 O          -0.6288    1.6283    0.0000 O.2     1  LIG1       -0.2656
     12 H           2.4377   -0.0217    0.0000 H       1  LIG1        0.1699
     13 H           1.2107    1.6934    0.0000 H       1  LIG1        0.0831
     14 H          -0.6288   -1.9482    0.0000 H       1  LIG1        0.0829
     15 H          -2.2972   -0.9850    0.0000 H       1  LIG1        0.0823
     16 H          -2.2808    0.9321    0.0000 H       1  LIG1        0.1684
@<TRIPOS>BOND
     1     1     2    2
     2     2     3   ar
     3     3     4   ar
     4     4     5   ar
     5     5     6   ar
     6     2     6   ar
     7     6     7   ar
     8     7     8   ar
     9     8     9   ar
    10     9    10   ar
    11     5    10   ar
    12    10    11    2
    13     3    12    1
    14     4    13    1
    15     7    14    1
    16     8    15    1
    17     9    16    1
