@<TRIPOS>MOLECULE
Cn1[nH]ncc1=O
 12 12 0 0 0
SMALL
GASTEIGER
Energy = 0

@<TRIPOS>ATOM
      1 C          -0.1713   -1.2525    0.0000 C.3     1  LIG1        0.0334
      2 N           0.0836   -0.4678    0.0000 N.ar    1  LIG1       -0.2380
      3 N           0.8682   -0.2129    0.0000 N.ar    1  LIG1       -0.2144
      4 N           0.8682    0.6121    0.0000 N.ar    1  LIG1       -0.1609
      5 C           0.0836    0.8670    0.0000 C.ar    1  LIG1        0.1150
      6 C          -0.4013    0.1996    0.0000 C.ar    1  LIG1        0.2864
      7 O          -1.2263    0.1996    0.0000 O.2     1  LIG1       -0.2645
      8 H           0.7332   -1.9464    0.0000 H       1  LIG1        0.0474
      9 H          -0.8244   -1.4553   -0.9121 H       1  LIG1        0.0474
     10 H          -0.7914   -1.4451    0.9370 H       1  LIG1        0.0474
     11 H           1.7439   -0.8492    0.0000 H       1  LIG1        0.2106
     12 H          -0.2568    1.9146    0.0000 H       1  LIG1        0.0904
@<TRIPOS>BOND
     1     1     2    1
     2     2     3   ar
     3     3     4   ar
     4     4     5   ar
     5     5     6   ar
     6     2     6   ar
     7     6     7    2
     8     1     8    1
     9     1     9    1
    10     1    10    1
    11     3    11    1
    12     5    12    1
