@<TRIPOS>MOLECULE
Cn1cnc2cocc2c1=O
 17 18 0 0 0
SMALL
GASTEIGER
Energy = 0

@<TRIPOS>ATOM
      1 C           1.7702   -0.5787    0.0000 C.3     1  LIG1        0.0161
      2 N           1.0557   -0.1662    0.0000 N.ar    1  LIG1       -0.3018
      3 C           1.0557    0.6588    0.0000 C.ar    1  LIG1        0.0991
      4 N           0.3412    1.0713    0.0000 N.ar    1  LIG1       -0.2338
      5 C          -0.3733    0.6588    0.0000 C.ar    1  LIG1        0.1154
      6 C          -1.1579    0.9137    0.0000 C.ar    1  LIG1        0.1178
      7 O          -1.6428    0.2463    0.0000 O.2     1  LIG1       -0.4681
      8 C          -1.1579   -0.4212    0.0000 C.ar    1  LIG1        0.1062
      9 C          -0.3733   -0.1662    0.0000 C.ar    1  LIG1        0.1025
     10 C           0.3412   -0.5787    0.0000 C.ar    1  LIG1        0.2644
     11 O           0.3412   -1.4037    0.0000 O.2     1  LIG1       -0.2668
     12 H           2.6370    0.1617    0.0000 H       1  LIG1        0.0457
     13 H           1.8328   -1.2597   -0.9121 H       1  LIG1        0.0457
     14 H           1.8296   -1.2253    0.9370 H       1  LIG1        0.0457
     15 H           2.0096    1.2096    0.0000 H       1  LIG1        0.1030
     16 H          -1.4983    1.9613    0.0000 H       1  LIG1        0.1051
     17 H          -1.4983   -1.4688    0.0000 H       1  LIG1        0.1038
@<TRIPOS>BOND
     1     1     2    1
     2     2     3   ar
     3     3     4   ar
     4     4     5   ar
     5     5     6   ar
     6     6     7   ar
     7     7     8   ar
     8     8     9   ar
     9     5     9   ar
    10     9    10   ar
    11     2    10   ar
    12    10    11    2
    13     1    12    1
    14     1    13    1
    15     1    14    1
    16     3    15    1
    17     6    16    1
    18     8    17    1
