@<TRIPOS>MOLECULE
c1onc2cnncc12
 12 13 0 0 0
SMALL
GASTEIGER
Energy = 0

@<TRIPOS>ATOM
      1 O           1.4090    0.0113    0.0000 O.2     1  LIG1       -0.3617
      2 C           0.9241    0.6787    0.0000 C.ar    1  LIG1        0.1335
      3 C           0.1395    0.4238    0.0000 C.ar    1  LIG1        0.0623
      4 C          -0.5750    0.8363    0.0000 C.ar    1  LIG1        0.0622
      5 N          -1.2895    0.4238    0.0000 N.ar    1  LIG1       -0.1569
      6 N          -1.2895   -0.4012    0.0000 N.ar    1  LIG1       -0.1554
      7 C          -0.5750   -0.8137    0.0000 C.ar    1  LIG1        0.0792
      8 C           0.1395   -0.4012    0.0000 C.ar    1  LIG1        0.1345
      9 N           0.9241   -0.6562    0.0000 N.ar    1  LIG1       -0.0767
     10 H           1.2645    1.7263    0.0000 H       1  LIG1        0.1064
     11 H          -0.5750    1.9378    0.0000 H       1  LIG1        0.0856
     12 H          -0.5750   -1.9152    0.0000 H       1  LIG1        0.0871
@<TRIPOS>BOND
     1     1     2   ar
     2     2     3   ar
     3     3     4   ar
     4     4     5   ar
     5     5     6   ar
     6     6     7   ar
     7     7     8   ar
     8     3     8   ar
     9     8     9   ar
    10     1     9   ar
    11     2    10    1
    12     4    11    1
    13     7    12    1
