@<TRIPOS>MOLECULE
O=c1ccc2cccn2[nH]1
 16 17 0 0 0
SMALL
GASTEIGER
Energy = 0

@<TRIPOS>ATOM
      1 O           1.7288    0.7027    0.0000 O.2     1  LIG1       -0.2665
      2 C           1.0143    0.2902    0.0000 C.ar    1  LIG1        0.2635
      3 N           0.2998    0.7027    0.0000 N.ar    1  LIG1       -0.2592
      4 N          -0.4146    0.2902    0.0000 N.ar    1  LIG1       -0.2596
      5 C          -1.1993    0.5451    0.0000 C.ar    1  LIG1        0.0278
      6 C          -1.6842   -0.1223    0.0000 C.ar    1  LIG1       -0.0416
      7 C          -1.1993   -0.7898    0.0000 C.ar    1  LIG1       -0.0349
      8 C          -0.4146   -0.5348    0.0000 C.ar    1  LIG1        0.0636
      9 C           0.2998   -0.9473    0.0000 C.ar    1  LIG1       -0.0312
     10 C           1.0143   -0.5348    0.0000 C.ar    1  LIG1        0.0061
     11 H           0.2998    1.7852    0.0000 H       1  LIG1        0.1905
     12 H          -1.5397    1.5927    0.0000 H       1  LIG1        0.0829
     13 H          -2.7857   -0.1223    0.0000 H       1  LIG1        0.0633
     14 H          -1.5397   -1.8374    0.0000 H       1  LIG1        0.0639
     15 H           0.2998   -2.0488    0.0000 H       1  LIG1        0.0640
     16 H           1.9682   -1.0856    0.0000 H       1  LIG1        0.0673
@<TRIPOS>BOND
     1     1     2    2
     2     2     3   ar
     3     3     4   ar
     4     4     5   ar
     5     5     6   ar
     6     6     7   ar
     7     7     8   ar
     8     4     8   ar
     9     8     9   ar
    10     9    10   ar
    11     2    10   ar
    12     3    11    1
    13     5    12    1
    14     6    13    1
    15     7    14    1
    16     9    15    1
    17    10    16    1
