@<TRIPOS>MOLECULE
c1cn2cc[nH]c2n1
 13 14 0 0 0
SMALL
GASTEIGER
Energy = 0

@<TRIPOS>ATOM
      1 N           0.7846   -0.6494    0.0000 N.ar    1  LIG1       -0.3304
      2 C           1.2695    0.0180    0.0000 C.ar    1  LIG1        0.0214
      3 C           0.7846    0.6855    0.0000 C.ar    1  LIG1        0.0285
      4 N           0.0000    0.4305    0.0000 N.ar    1  LIG1       -0.2911
      5 C          -0.7846    0.6855    0.0000 C.ar    1  LIG1        0.0307
      6 C          -1.2695    0.0180    0.0000 C.ar    1  LIG1        0.0479
      7 N          -0.7846   -0.6494    0.0000 N.ar    1  LIG1       -0.2204
      8 C           0.0000   -0.3945    0.0000 C.ar    1  LIG1        0.2125
      9 H           1.1191   -1.6789    0.0000 H       1  LIG1        0.1682
     10 H           2.3710    0.0180    0.0000 H       1  LIG1        0.0823
     11 H           1.1250    1.7331    0.0000 H       1  LIG1        0.0828
     12 H          -1.1250    1.7331    0.0000 H       1  LIG1        0.0829
     13 H          -2.3710    0.0180    0.0000 H       1  LIG1        0.0846
@<TRIPOS>BOND
     1     1     2   ar
     2     2     3   ar
     3     3     4   ar
     4     4     5   ar
     5     5     6   ar
     6     6     7   ar
     7     7     8   ar
     8     1     8   ar
     9     4     8   ar
    10     1     9    1
    11     2    10    1
    12     3    11    1
    13     5    12    1
    14     6    13    1
