@<TRIPOS>MOLECULE
O=c1ccc2ncc[nH]c2n1
 16 17 0 0 0
SMALL
GASTEIGER
Energy = 0

@<TRIPOS>ATOM
      1 O           1.9121   -0.7205    0.0000 O.2     1  LIG1       -0.2658
      2 C           1.1976   -0.3080    0.0000 C.ar    1  LIG1        0.2722
      3 C           1.1976    0.5170    0.0000 C.ar    1  LIG1        0.0068
      4 C           0.4832    0.9295    0.0000 C.ar    1  LIG1       -0.0276
      5 C          -0.2313    0.5170    0.0000 C.ar    1  LIG1        0.1063
      6 N          -0.9458    0.9295    0.0000 N.ar    1  LIG1       -0.2505
      7 C          -1.6602    0.5170    0.0000 C.ar    1  LIG1        0.0443
      8 C          -1.6602   -0.3080    0.0000 C.ar    1  LIG1        0.0216
      9 N          -0.9458   -0.7205    0.0000 N.ar    1  LIG1       -0.3431
     10 C          -0.2313   -0.3080    0.0000 C.ar    1  LIG1        0.1605
     11 N           0.4832   -0.7205    0.0000 N.ar    1  LIG1       -0.1897
     12 H           2.1515    1.0677    0.0000 H       1  LIG1        0.0673
     13 H           0.4832    2.0310    0.0000 H       1  LIG1        0.0642
     14 H          -2.6141    1.0677    0.0000 H       1  LIG1        0.0844
     15 H          -2.6141   -0.8587    0.0000 H       1  LIG1        0.0823
     16 H          -0.9458   -1.8030    0.0000 H       1  LIG1        0.1669
@<TRIPOS>BOND
     1     1     2    2
     2     2     3   ar
     3     3     4   ar
     4     4     5   ar
     5     5     6   ar
     6     6     7   ar
     7     7     8   ar
     8     8     9   ar
     9     9    10   ar
    10     5    10   ar
    11    10    11   ar
    12     2    11   ar
    13     3    12    1
    14     4    13    1
    15     7    14    1
    16     8    15    1
    17     9    16    1
