@<TRIPOS>MOLECULE
Cn1c(=O)cc[nH]c1=O
 15 15 0 0 0
SMALL
GASTEIGER
Energy = 0

@<TRIPOS>ATOM
      1 C          -0.0119   -1.2582    0.0000 C.3     1  LIG1        0.0195
      2 N          -0.0119   -0.4332    0.0000 N.ar    1  LIG1       -0.2642
      3 C           0.7026   -0.0207    0.0000 C.ar    1  LIG1        0.3291
      4 O           1.4171   -0.4332    0.0000 O.2     1  LIG1       -0.2465
      5 N           0.7026    0.8043    0.0000 N.ar    1  LIG1       -0.3141
      6 C          -0.0119    1.2168    0.0000 C.ar    1  LIG1        0.0115
      7 C          -0.7263    0.8043    0.0000 C.ar    1  LIG1        0.0191
      8 C          -0.7263   -0.0207    0.0000 C.ar    1  LIG1        0.2562
      9 O          -1.4408   -0.4332    0.0000 O.2     1  LIG1       -0.2675
     10 H           1.0627   -1.6387    0.0000 H       1  LIG1        0.0458
     11 H          -0.5704   -1.6529   -0.9121 H       1  LIG1        0.0458
     12 H          -0.5421   -1.6329    0.9370 H       1  LIG1        0.0458
     13 H           1.6401    1.3456    0.0000 H       1  LIG1        0.1698
     14 H          -0.0119    2.3183    0.0000 H       1  LIG1        0.0810
     15 H          -1.6802    1.3550    0.0000 H       1  LIG1        0.0686
@<TRIPOS>BOND
     1     1     2    1
     2     2     3   ar
     3     3     4    2
     4     3     5   ar
     5     5     6   ar
     6     6     7   ar
     7     7     8   ar
     8     2     8   ar
     9     8     9    2
    10     1    10    1
    11     1    11    1
    12     1    12    1
    13     5    13    1
    14     6    14    1
    15     7    15    1
