@<TRIPOS>MOLECULE
O=c1nc2ccsc2c[nH]1
 14 15 0 0 0
SMALL
GASTEIGER
Energy = 0

@<TRIPOS>ATOM
      1 O           1.8719   -0.8207    0.0000 O.2     1  LIG1       -0.2447
      2 C           1.1574   -0.4082    0.0000 C.ar    1  LIG1        0.3464
      3 N           1.1574    0.4168    0.0000 N.ar    1  LIG1       -0.3119
      4 C           0.4429    0.8293    0.0000 C.ar    1  LIG1        0.0222
      5 C          -0.2715    0.4168    0.0000 C.ar    1  LIG1        0.0537
      6 S          -1.0562    0.6717    0.0000 S.2     1  LIG1       -0.0936
      7 C          -1.5411    0.0043    0.0000 C.ar    1  LIG1       -0.0216
      8 C          -1.0562   -0.6631    0.0000 C.ar    1  LIG1       -0.0285
      9 C          -0.2715   -0.4082    0.0000 C.ar    1  LIG1        0.0848
     10 N           0.4429   -0.8207    0.0000 N.ar    1  LIG1       -0.1926
     11 H           2.0949    0.9581    0.0000 H       1  LIG1        0.1699
     12 H           0.4429    1.9308    0.0000 H       1  LIG1        0.0820
     13 H          -2.6426    0.0043    0.0000 H       1  LIG1        0.0694
     14 H          -1.3966   -1.7107    0.0000 H       1  LIG1        0.0644
@<TRIPOS>BOND
     1     1     2    2
     2     2     3   ar
     3     3     4   ar
     4     4     5   ar
     5     5     6   ar
     6     6     7   ar
     7     7     8   ar
     8     8     9   ar
     9     5     9   ar
    10     9    10   ar
    11     2    10   ar
    12     3    11    1
    13     4    12    1
    14     7    13    1
    15     8    14    1
