@<TRIPOS>MOLECULE
O=c1nc[nH]c2cncnc12
 15 16 0 0 0
SMALL
GASTEIGER
Energy = 0

@<TRIPOS>ATOM
      1 O           0.6351   -1.4668    0.0000 O.2     1  LIG1       -0.2634
      2 C           0.6351   -0.6418    0.0000 C.ar    1  LIG1        0.2991
      3 N           1.3496   -0.2293    0.0000 N.ar    1  LIG1       -0.1977
      4 C           1.3496    0.5957    0.0000 C.ar    1  LIG1        0.0978
      5 N           0.6351    1.0082    0.0000 N.ar    1  LIG1       -0.3430
      6 C          -0.0793    0.5957    0.0000 C.ar    1  LIG1        0.0898
      7 C          -0.7938    1.0082    0.0000 C.ar    1  LIG1        0.0549
      8 N          -1.5083    0.5957    0.0000 N.ar    1  LIG1       -0.2416
      9 C          -1.5083   -0.2293    0.0000 C.ar    1  LIG1        0.1169
     10 N          -0.7938   -0.6418    0.0000 N.ar    1  LIG1       -0.2284
     11 C          -0.0793   -0.2293    0.0000 C.ar    1  LIG1        0.1563
     12 H           2.3035    1.1465    0.0000 H       1  LIG1        0.1028
     13 H           0.6351    2.0907    0.0000 H       1  LIG1        0.1668
     14 H          -0.7938    2.1097    0.0000 H       1  LIG1        0.0852
     15 H          -2.4622   -0.7801    0.0000 H       1  LIG1        0.1047
@<TRIPOS>BOND
     1     1     2    2
     2     2     3   ar
     3     3     4   ar
     4     4     5   ar
     5     5     6   ar
     6     6     7   ar
     7     7     8   ar
     8     8     9   ar
     9     9    10   ar
    10    10    11   ar
    11     2    11   ar
    12     6    11   ar
    13     4    12    1
    14     5    13    1
    15     7    14    1
    16     9    15    1
