@<TRIPOS>MOLECULE
Cn1ccc2cn[nH]c12
 16 17 0 0 0
SMALL
GASTEIGER
Energy = 0

@<TRIPOS>ATOM
      1 C           0.9523   -1.2758    0.0000 C.3     1  LIG1        0.0132
      2 N           0.6974   -0.4912    0.0000 N.ar    1  LIG1       -0.3353
      3 C           1.1823    0.1762    0.0000 C.ar    1  LIG1        0.0068
      4 C           0.6974    0.8437    0.0000 C.ar    1  LIG1       -0.0334
      5 C          -0.0872    0.5887    0.0000 C.ar    1  LIG1        0.0380
      6 C          -0.0872   -0.2363    0.0000 C.ar    1  LIG1        0.1361
      7 N          -0.8719   -0.4912    0.0000 N.ar    1  LIG1       -0.2615
      8 N          -1.3568    0.1762    0.0000 N.ar    1  LIG1       -0.1799
      9 C          -0.8719    0.8437    0.0000 C.ar    1  LIG1        0.0584
     10 H           2.0919   -1.3057    0.0000 H       1  LIG1        0.0456
     11 H           0.5431   -1.8237   -0.9121 H       1  LIG1        0.0456
     12 H           0.5638   -1.7960    0.9370 H       1  LIG1        0.0456
     13 H           2.2838    0.1762    0.0000 H       1  LIG1        0.0809
     14 H           1.0378    1.8913    0.0000 H       1  LIG1        0.0640
     15 H          -1.2064   -1.5207    0.0000 H       1  LIG1        0.1905
     16 H          -1.2123    1.8913    0.0000 H       1  LIG1        0.0854
@<TRIPOS>BOND
     1     1     2    1
     2     2     3   ar
     3     3     4   ar
     4     4     5   ar
     5     5     6   ar
     6     2     6   ar
     7     6     7   ar
     8     7     8   ar
     9     8     9   ar
    10     5     9   ar
    11     1    10    1
    12     1    11    1
    13     1    12    1
    14     3    13    1
    15     4    14    1
    16     7    15    1
    17     9    16    1
