@<TRIPOS>MOLECULE
O=c1cn[nH]c2ncccc12
 16 17 0 0 0
SMALL
GASTEIGER
Energy = 0

@<TRIPOS>ATOM
      1 O           0.6140   -1.4932    0.0000 O.2     1  LIG1       -0.2855
      2 C           0.6140   -0.6682    0.0000 C.ar    1  LIG1        0.2092
      3 C           1.3284   -0.2557    0.0000 C.ar    1  LIG1        0.0951
      4 N           1.3284    0.5693    0.0000 N.ar    1  LIG1       -0.1767
      5 N           0.6140    0.9818    0.0000 N.ar    1  LIG1       -0.2601
      6 C          -0.1005    0.5693    0.0000 C.ar    1  LIG1        0.1578
      7 N          -0.8150    0.9818    0.0000 N.ar    1  LIG1       -0.2360
      8 C          -1.5295    0.5693    0.0000 C.ar    1  LIG1        0.0300
      9 C          -1.5295   -0.2557    0.0000 C.ar    1  LIG1       -0.0428
     10 C          -0.8150   -0.6682    0.0000 C.ar    1  LIG1       -0.0459
     11 C          -0.1005   -0.2557    0.0000 C.ar    1  LIG1        0.0668
     12 H           2.2823   -0.8064    0.0000 H       1  LIG1        0.0887
     13 H           0.6140    2.0643    0.0000 H       1  LIG1        0.1905
     14 H          -2.4834    1.1201    0.0000 H       1  LIG1        0.0830
     15 H          -2.4834   -0.8065    0.0000 H       1  LIG1        0.0633
     16 H          -0.8150   -1.7697    0.0000 H       1  LIG1        0.0626
@<TRIPOS>BOND
     1     1     2    2
     2     2     3   ar
     3     3     4   ar
     4     4     5   ar
     5     5     6   ar
     6     6     7   ar
     7     7     8   ar
     8     8     9   ar
     9     9    10   ar
    10    10    11   ar
    11     2    11   ar
    12     6    11   ar
    13     3    12    1
    14     5    13    1
    15     8    14    1
    16     9    15    1
    17    10    16    1
