@<TRIPOS>MOLECULE
O=c1cc2ccncn2cn1
 16 17 0 0 0
SMALL
GASTEIGER
Energy = 0

@<TRIPOS>ATOM
      1 O           1.9021    0.7495    0.0000 O.2     1  LIG1       -0.2658
      2 C           1.1876    0.3370    0.0000 C.ar    1  LIG1        0.2735
      3 C           0.4731    0.7495    0.0000 C.ar    1  LIG1        0.0286
      4 C          -0.2413    0.3370    0.0000 C.ar    1  LIG1        0.0554
      5 C          -0.9558    0.7495    0.0000 C.ar    1  LIG1       -0.0194
      6 C          -1.6703    0.3370    0.0000 C.ar    1  LIG1        0.0312
      7 N          -1.6703   -0.4880    0.0000 N.ar    1  LIG1       -0.2451
      8 C          -0.9558   -0.9005    0.0000 C.ar    1  LIG1        0.1014
      9 N          -0.2413   -0.4880    0.0000 N.ar    1  LIG1       -0.2907
     10 C           0.4731   -0.9005    0.0000 C.ar    1  LIG1        0.1054
     11 N           1.1876   -0.4880    0.0000 N.ar    1  LIG1       -0.1990
     12 H           0.4731    1.8510    0.0000 H       1  LIG1        0.0693
     13 H          -0.9558    1.8510    0.0000 H       1  LIG1        0.0653
     14 H          -2.6242    0.8878    0.0000 H       1  LIG1        0.0831
     15 H          -0.9558   -2.0020    0.0000 H       1  LIG1        0.1032
     16 H           0.4731   -2.0020    0.0000 H       1  LIG1        0.1034
@<TRIPOS>BOND
     1     1     2    2
     2     2     3   ar
     3     3     4   ar
     4     4     5   ar
     5     5     6   ar
     6     6     7   ar
     7     7     8   ar
     8     8     9   ar
     9     4     9   ar
    10     9    10   ar
    11    10    11   ar
    12     2    11   ar
    13     3    12    1
    14     5    13    1
    15     6    14    1
    16     8    15    1
    17    10    16    1
