@<TRIPOS>MOLECULE
c1nc2ncnnc2[nH]1
 12 13 0 0 0
SMALL
GASTEIGER
Energy = 0

@<TRIPOS>ATOM
      1 N           0.9537   -0.6605    0.0000 N.ar    1  LIG1       -0.3266
      2 C           1.4386    0.0070    0.0000 C.ar    1  LIG1        0.0974
      3 N           0.9537    0.6744    0.0000 N.ar    1  LIG1       -0.2151
      4 C           0.1691    0.4195    0.0000 C.ar    1  LIG1        0.2004
      5 N          -0.5454    0.8320    0.0000 N.ar    1  LIG1       -0.2114
      6 C          -1.2599    0.4195    0.0000 C.ar    1  LIG1        0.1407
      7 N          -1.2599   -0.4055    0.0000 N.ar    1  LIG1       -0.1357
      8 N          -0.5454   -0.8180    0.0000 N.ar    1  LIG1       -0.1263
      9 C           0.1691   -0.4055    0.0000 C.ar    1  LIG1        0.1988
     10 H           1.2882   -1.6900    0.0000 H       1  LIG1        0.1683
     11 H           2.5401    0.0070    0.0000 H       1  LIG1        0.1028
     12 H          -2.2138    0.9703    0.0000 H       1  LIG1        0.1066
@<TRIPOS>BOND
     1     1     2   ar
     2     2     3   ar
     3     3     4   ar
     4     4     5   ar
     5     5     6   ar
     6     6     7   ar
     7     7     8   ar
     8     8     9   ar
     9     1     9   ar
    10     4     9   ar
    11     1    10    1
    12     2    11    1
    13     6    12    1
