@<TRIPOS>MOLECULE
c1ncn2ncccc12
 14 15 0 0 0
SMALL
GASTEIGER
Energy = 0

@<TRIPOS>ATOM
      1 C           1.2862    0.4342    0.0000 C.ar    1  LIG1       -0.0399
      2 C           0.5717    0.8467    0.0000 C.ar    1  LIG1       -0.0332
      3 C          -0.1427    0.4342    0.0000 C.ar    1  LIG1        0.0851
      4 C          -0.9274    0.6891    0.0000 C.ar    1  LIG1        0.0547
      5 N          -1.4123    0.0217    0.0000 N.ar    1  LIG1       -0.2416
      6 C          -0.9274   -0.6458    0.0000 C.ar    1  LIG1        0.1181
      7 N          -0.1427   -0.3908    0.0000 N.ar    1  LIG1       -0.2203
      8 N           0.5717   -0.8033    0.0000 N.ar    1  LIG1       -0.1734
      9 C           1.2862   -0.3908    0.0000 C.ar    1  LIG1        0.0485
     10 H           2.2401    0.9850    0.0000 H       1  LIG1        0.0634
     11 H           0.5717    1.9482    0.0000 H       1  LIG1        0.0640
     12 H          -1.2678    1.7367    0.0000 H       1  LIG1        0.0852
     13 H          -1.2678   -1.6934    0.0000 H       1  LIG1        0.1047
     14 H           2.2401   -0.9416    0.0000 H       1  LIG1        0.0847
@<TRIPOS>BOND
     1     1     2   ar
     2     2     3   ar
     3     3     4   ar
     4     4     5   ar
     5     5     6   ar
     6     6     7   ar
     7     3     7   ar
     8     7     8   ar
     9     8     9   ar
    10     1     9   ar
    11     1    10    1
    12     2    11    1
    13     4    12    1
    14     6    13    1
    15     9    14    1
