@<TRIPOS>MOLECULE
O=c1ncc2conc2[nH]1
 13 14 0 0 0
SMALL
GASTEIGER
Energy = 0

@<TRIPOS>ATOM
      1 O           1.7755    0.7105    0.0000 O.2     1  LIG1       -0.2447
      2 C           1.0610    0.2980    0.0000 C.ar    1  LIG1        0.3474
      3 N           0.3465    0.7105    0.0000 N.ar    1  LIG1       -0.2879
      4 C          -0.3680    0.2980    0.0000 C.ar    1  LIG1        0.1859
      5 N          -1.1526    0.5529    0.0000 N.ar    1  LIG1       -0.0600
      6 O          -1.6375   -0.1145    0.0000 O.2     1  LIG1       -0.3603
      7 C          -1.1526   -0.7820    0.0000 C.ar    1  LIG1        0.1349
      8 C          -0.3680   -0.5270    0.0000 C.ar    1  LIG1        0.0761
      9 C           0.3465   -0.9395    0.0000 C.ar    1  LIG1        0.0468
     10 N           1.0610   -0.5270    0.0000 N.ar    1  LIG1       -0.2007
     11 H           0.3465    1.7930    0.0000 H       1  LIG1        0.1720
     12 H          -1.4930   -1.8296    0.0000 H       1  LIG1        0.1065
     13 H           0.3465   -2.0410    0.0000 H       1  LIG1        0.0839
@<TRIPOS>BOND
     1     1     2    2
     2     2     3   ar
     3     3     4   ar
     4     4     5   ar
     5     5     6   ar
     6     6     7   ar
     7     7     8   ar
     8     4     8   ar
     9     8     9   ar
    10     9    10   ar
    11     2    10   ar
    12     3    11    1
    13     7    12    1
    14     9    13    1
