@<TRIPOS>MOLECULE
Cn1c(=O)ncc2ncsc12
 16 17 0 0 0
SMALL
GASTEIGER
Energy = 0

@<TRIPOS>ATOM
      1 C          -0.4231   -1.3670    0.0000 C.3     1  LIG1        0.0173
      2 N          -0.4231   -0.5420    0.0000 N.ar    1  LIG1       -0.2879
      3 C          -1.1376   -0.1295    0.0000 C.ar    1  LIG1        0.3491
      4 O          -1.8521   -0.5420    0.0000 O.2     1  LIG1       -0.2445
      5 N          -1.1376    0.6955    0.0000 N.ar    1  LIG1       -0.1992
      6 C          -0.4231    1.1080    0.0000 C.ar    1  LIG1        0.0609
      7 C           0.2914    0.6955    0.0000 C.ar    1  LIG1        0.1130
      8 C           0.2914   -0.1295    0.0000 C.ar    1  LIG1        0.1124
      9 S           1.0760   -0.3844    0.0000 S.2     1  LIG1       -0.0575
     10 C           1.5609    0.2830    0.0000 C.ar    1  LIG1        0.0674
     11 N           1.0760    0.9505    0.0000 N.ar    1  LIG1       -0.2443
     12 H          -1.4977   -1.7475    0.0000 H       1  LIG1        0.0457
     13 H           0.1354   -1.7617    0.9121 H       1  LIG1        0.0457
     14 H           0.1071   -1.7417   -0.9370 H       1  LIG1        0.0457
     15 H          -0.4231    2.2095    0.0000 H       1  LIG1        0.0854
     16 H           2.6624    0.2830    0.0000 H       1  LIG1        0.0908
@<TRIPOS>BOND
     1     1     2    1
     2     2     3   ar
     3     3     4    2
     4     3     5   ar
     5     5     6   ar
     6     6     7   ar
     7     7     8   ar
     8     2     8   ar
     9     8     9   ar
    10     9    10   ar
    11    10    11   ar
    12     7    11   ar
    13     1    12    1
    14     1    13    1
    15     1    14    1
    16     6    15    1
    17    10    16    1
