@<TRIPOS>MOLECULE
O=c1[nH]cn[nH]1
 9 9 0 0 0
SMALL
GASTEIGER
Energy = 0

@<TRIPOS>ATOM
      1 O          -1.2323   -0.0100    0.0000 O.2     1  LIG1       -0.2452
      2 C          -0.4073   -0.0100    0.0000 C.ar    1  LIG1        0.3413
      3 N           0.0776   -0.6775    0.0000 N.ar    1  LIG1       -0.2962
      4 C           0.8622   -0.4225    0.0000 C.ar    1  LIG1        0.1176
      5 N           0.8622    0.4025    0.0000 N.ar    1  LIG1       -0.1602
      6 N           0.0776    0.6574    0.0000 N.ar    1  LIG1       -0.2270
      7 H          -0.2569   -1.7070    0.0000 H       1  LIG1        0.1713
      8 H           1.7534   -1.0699    0.0000 H       1  LIG1        0.1046
      9 H          -0.2569    1.6869    0.0000 H       1  LIG1        0.1937
@<TRIPOS>BOND
     1     1     2    2
     2     2     3   ar
     3     3     4   ar
     4     4     5   ar
     5     5     6   ar
     6     2     6   ar
     7     3     7    1
     8     4     8    1
     9     6     9    1
