@<TRIPOS>MOLECULE
Cn1oc2ncccc2c1=O
 17 18 0 0 0
SMALL
GASTEIGER
Energy = 0

@<TRIPOS>ATOM
      1 C           1.8958    0.1313    0.0000 C.3     1  LIG1        0.0489
      2 N           1.0708    0.1313    0.0000 N.ar    1  LIG1       -0.1715
      3 O           0.5859    0.7988    0.0000 O.2     1  LIG1       -0.3540
      4 C          -0.1987    0.5438    0.0000 C.ar    1  LIG1        0.2596
      5 N          -0.9132    0.9563    0.0000 N.ar    1  LIG1       -0.2184
      6 C          -1.6277    0.5438    0.0000 C.ar    1  LIG1        0.0315
      7 C          -1.6277   -0.2812    0.0000 C.ar    1  LIG1       -0.0426
      8 C          -0.9132   -0.6937    0.0000 C.ar    1  LIG1       -0.0426
      9 C          -0.1987   -0.2812    0.0000 C.ar    1  LIG1        0.1062
     10 C           0.5859   -0.5361    0.0000 C.ar    1  LIG1        0.2918
     11 O           0.8408   -1.3207    0.0000 O.2     1  LIG1       -0.2642
     12 H           2.2763    1.2059    0.0000 H       1  LIG1        0.0488
     13 H           2.2905   -0.4272   -0.9121 H       1  LIG1        0.0488
     14 H           2.2705   -0.3989    0.9370 H       1  LIG1        0.0488
     15 H          -2.5816    1.0946    0.0000 H       1  LIG1        0.0831
     16 H          -2.5816   -0.8320    0.0000 H       1  LIG1        0.0633
     17 H          -0.9132   -1.7952    0.0000 H       1  LIG1        0.0627
@<TRIPOS>BOND
     1     1     2    1
     2     2     3   ar
     3     3     4   ar
     4     4     5   ar
     5     5     6   ar
     6     6     7   ar
     7     7     8   ar
     8     8     9   ar
     9     4     9   ar
    10     9    10   ar
    11     2    10   ar
    12    10    11    2
    13     1    12    1
    14     1    13    1
    15     1    14    1
    16     6    15    1
    17     7    16    1
    18     8    17    1
