@<TRIPOS>MOLECULE
c1cc2[nH]ncc2o1
 12 13 0 0 0
SMALL
GASTEIGER
Energy = 0

@<TRIPOS>ATOM
      1 N           0.7753   -0.6802    0.0000 N.ar    1  LIG1       -0.2738
      2 N           1.2602   -0.0128    0.0000 N.ar    1  LIG1       -0.1780
      3 C           0.7753    0.6547    0.0000 C.ar    1  LIG1        0.0920
      4 C          -0.0093    0.3997    0.0000 C.ar    1  LIG1        0.1719
      5 C          -0.0093   -0.4253    0.0000 C.ar    1  LIG1        0.1037
      6 C          -0.7939   -0.6802    0.0000 C.ar    1  LIG1        0.0017
      7 C          -1.2789   -0.0128    0.0000 C.ar    1  LIG1        0.0947
      8 O          -0.7939    0.6547    0.0000 O.2     1  LIG1       -0.4598
      9 H           1.1098   -1.7097    0.0000 H       1  LIG1        0.1890
     10 H           1.1157    1.7023    0.0000 H       1  LIG1        0.0886
     11 H          -1.1342   -1.7278    0.0000 H       1  LIG1        0.0670
     12 H          -2.3804   -0.0128    0.0000 H       1  LIG1        0.1030
@<TRIPOS>BOND
     1     1     2   ar
     2     2     3   ar
     3     3     4   ar
     4     4     5   ar
     5     1     5   ar
     6     5     6   ar
     7     6     7   ar
     8     7     8   ar
     9     4     8   ar
    10     1     9    1
    11     3    10    1
    12     6    11    1
    13     7    12    1
