@<TRIPOS>MOLECULE
Cn1cc2[nH]c(=O)ncc2n1
 17 18 0 0 0
SMALL
GASTEIGER
Energy = 0

@<TRIPOS>ATOM
      1 C           2.2799   -0.0881    0.0000 C.3     1  LIG1        0.0303
      2 N           1.4549   -0.0881    0.0000 N.ar    1  LIG1       -0.2718
      3 C           0.9700    0.5794    0.0000 C.ar    1  LIG1        0.0493
      4 C           0.1853    0.3244    0.0000 C.ar    1  LIG1        0.0899
      5 N          -0.5291    0.7369    0.0000 N.ar    1  LIG1       -0.3032
      6 C          -1.2436    0.3244    0.0000 C.ar    1  LIG1        0.3464
      7 O          -1.9581    0.7369    0.0000 O.2     1  LIG1       -0.2447
      8 N          -1.2436   -0.5006    0.0000 N.ar    1  LIG1       -0.1993
      9 C          -0.5291   -0.9131    0.0000 C.ar    1  LIG1        0.0621
     10 C           0.1853   -0.5006    0.0000 C.ar    1  LIG1        0.1271
     11 N           0.9700   -0.7555    0.0000 N.ar    1  LIG1       -0.1684
     12 H           2.6604    0.9865    0.0000 H       1  LIG1        0.0473
     13 H           2.6746   -0.6466   -0.9121 H       1  LIG1        0.0473
     14 H           2.6546   -0.6183    0.9370 H       1  LIG1        0.0473
     15 H           1.3104    1.6270    0.0000 H       1  LIG1        0.0847
     16 H          -0.5291    1.8194    0.0000 H       1  LIG1        0.1705
     17 H          -0.5291   -2.0146    0.0000 H       1  LIG1        0.0854
@<TRIPOS>BOND
     1     1     2    1
     2     2     3   ar
     3     3     4   ar
     4     4     5   ar
     5     5     6   ar
     6     6     7    2
     7     6     8   ar
     8     8     9   ar
     9     9    10   ar
    10     4    10   ar
    11    10    11   ar
    12     2    11   ar
    13     1    12    1
    14     1    13    1
    15     1    14    1
    16     3    15    1
    17     5    16    1
    18     9    17    1
