@<TRIPOS>MOLECULE
O=c1[nH]ccc2scnc12
 14 15 0 0 0
SMALL
GASTEIGER
Energy = 0

@<TRIPOS>ATOM
      1 O          -0.6174   -1.5476    0.0000 O.2     1  LIG1       -0.2656
      2 C          -0.6174   -0.7226    0.0000 C.ar    1  LIG1        0.2753
      3 N          -1.3319   -0.3101    0.0000 N.ar    1  LIG1       -0.3273
      4 C          -1.3319    0.5149    0.0000 C.ar    1  LIG1        0.0061
      5 C          -0.6174    0.9274    0.0000 C.ar    1  LIG1       -0.0297
      6 C           0.0970    0.5149    0.0000 C.ar    1  LIG1        0.0456
      7 C           0.0970   -0.3101    0.0000 C.ar    1  LIG1        0.1422
      8 N           0.8816   -0.5650    0.0000 N.ar    1  LIG1       -0.2420
      9 C           1.3666    0.1024    0.0000 C.ar    1  LIG1        0.0661
     10 S           0.8816    0.7698    0.0000 S.2     1  LIG1       -0.0752
     11 H          -2.2694   -0.8514    0.0000 H       1  LIG1        0.1684
     12 H          -2.2858    1.0657    0.0000 H       1  LIG1        0.0808
     13 H          -0.6174    2.0289    0.0000 H       1  LIG1        0.0644
     14 H           2.4681    0.1024    0.0000 H       1  LIG1        0.0908
@<TRIPOS>BOND
     1     1     2    2
     2     2     3   ar
     3     3     4   ar
     4     4     5   ar
     5     5     6   ar
     6     6     7   ar
     7     2     7   ar
     8     7     8   ar
     9     8     9   ar
    10     9    10   ar
    11     6    10   ar
    12     3    11    1
    13     4    12    1
    14     5    13    1
    15     9    14    1
