@<TRIPOS>MOLECULE
Cn1cc2cn[nH]c2nc1=O
 17 18 0 0 0
SMALL
GASTEIGER
Energy = 0

@<TRIPOS>ATOM
      1 C           1.6048    0.8628    0.0000 C.3     1  LIG1        0.0162
      2 N           0.8903    0.4503    0.0000 N.ar    1  LIG1       -0.3014
      3 C           0.1759    0.8628    0.0000 C.ar    1  LIG1        0.0213
      4 C          -0.5386    0.4503    0.0000 C.ar    1  LIG1        0.0547
      5 C          -1.3232    0.7052    0.0000 C.ar    1  LIG1        0.0598
      6 N          -1.8081    0.0378    0.0000 N.ar    1  LIG1       -0.1798
      7 N          -1.3232   -0.6296    0.0000 N.ar    1  LIG1       -0.2600
      8 C          -0.5386   -0.3747    0.0000 C.ar    1  LIG1        0.1625
      9 N           0.1759   -0.7872    0.0000 N.ar    1  LIG1       -0.1737
     10 C           0.8903   -0.3747    0.0000 C.ar    1  LIG1        0.3501
     11 O           1.6048   -0.7872    0.0000 O.2     1  LIG1       -0.2444
     12 H           1.3971    1.9837    0.0000 H       1  LIG1        0.0457
     13 H           2.2258    0.5765   -0.9121 H       1  LIG1        0.0457
     14 H           2.1945    0.5910    0.9370 H       1  LIG1        0.0457
     15 H           0.1759    1.9643    0.0000 H       1  LIG1        0.0818
     16 H          -1.6636    1.7528    0.0000 H       1  LIG1        0.0855
     17 H          -1.6577   -1.6591    0.0000 H       1  LIG1        0.1905
@<TRIPOS>BOND
     1     1     2    1
     2     2     3   ar
     3     3     4   ar
     4     4     5   ar
     5     5     6   ar
     6     6     7   ar
     7     7     8   ar
     8     4     8   ar
     9     8     9   ar
    10     9    10   ar
    11     2    10   ar
    12    10    11    2
    13     1    12    1
    14     1    13    1
    15     1    14    1
    16     3    15    1
    17     5    16    1
    18     7    17    1
