@<TRIPOS>MOLECULE
c1noc2nccnc12
 12 13 0 0 0
SMALL
GASTEIGER
Energy = 0

@<TRIPOS>ATOM
      1 O           0.9081   -0.6449    0.0000 O.2     1  LIG1       -0.3329
      2 N           1.3930    0.0225    0.0000 N.ar    1  LIG1       -0.0820
      3 C           0.9081    0.6900    0.0000 C.ar    1  LIG1        0.0977
      4 C           0.1235    0.4350    0.0000 C.ar    1  LIG1        0.1491
      5 N          -0.5910    0.8475    0.0000 N.ar    1  LIG1       -0.2470
      6 C          -1.3055    0.4350    0.0000 C.ar    1  LIG1        0.0467
      7 C          -1.3055   -0.3900    0.0000 C.ar    1  LIG1        0.0496
      8 N          -0.5910   -0.8025    0.0000 N.ar    1  LIG1       -0.2156
      9 C           0.1235   -0.3900    0.0000 C.ar    1  LIG1        0.2766
     10 H           1.2485    1.7376    0.0000 H       1  LIG1        0.0886
     11 H          -2.2594    0.9858    0.0000 H       1  LIG1        0.0845
     12 H          -2.2594   -0.9408    0.0000 H       1  LIG1        0.0846
@<TRIPOS>BOND
     1     1     2   ar
     2     2     3   ar
     3     3     4   ar
     4     4     5   ar
     5     5     6   ar
     6     6     7   ar
     7     7     8   ar
     8     8     9   ar
     9     1     9   ar
    10     4     9   ar
    11     3    10    1
    12     6    11    1
    13     7    12    1
