@<TRIPOS>MOLECULE
O=c1ccc2cccnc2[nH]1
 17 18 0 0 0
SMALL
GASTEIGER
Energy = 0

@<TRIPOS>ATOM
      1 O           1.8986    0.7073    0.0000 O.2     1  LIG1       -0.2679
      2 C           1.1842    0.2948    0.0000 C.ar    1  LIG1        0.2503
      3 N           0.4697    0.7073    0.0000 N.ar    1  LIG1       -0.3070
      4 C          -0.2448    0.2948    0.0000 C.ar    1  LIG1        0.1407
      5 N          -0.9593    0.7073    0.0000 N.ar    1  LIG1       -0.2374
      6 C          -1.6737    0.2948    0.0000 C.ar    1  LIG1        0.0299
      7 C          -1.6737   -0.5302    0.0000 C.ar    1  LIG1       -0.0429
      8 C          -0.9593   -0.9427    0.0000 C.ar    1  LIG1       -0.0497
      9 C          -0.2448   -0.5302    0.0000 C.ar    1  LIG1        0.0175
     10 C           0.4697   -0.9427    0.0000 C.ar    1  LIG1       -0.0460
     11 C           1.1842   -0.5302    0.0000 C.ar    1  LIG1        0.0035
     12 H           0.4697    1.7898    0.0000 H       1  LIG1        0.1704
     13 H          -2.6276    0.8455    0.0000 H       1  LIG1        0.0830
     14 H          -2.6276   -1.0809    0.0000 H       1  LIG1        0.0633
     15 H          -0.9593   -2.0442    0.0000 H       1  LIG1        0.0625
     16 H           0.4697   -2.0442    0.0000 H       1  LIG1        0.0626
     17 H           2.1381   -1.0810    0.0000 H       1  LIG1        0.0672
@<TRIPOS>BOND
     1     1     2    2
     2     2     3   ar
     3     3     4   ar
     4     4     5   ar
     5     5     6   ar
     6     6     7   ar
     7     7     8   ar
     8     8     9   ar
     9     4     9   ar
    10     9    10   ar
    11    10    11   ar
    12     2    11   ar
    13     3    12    1
    14     6    13    1
    15     7    14    1
    16     8    15    1
    17    10    16    1
    18    11    17    1
