@<TRIPOS>MOLECULE
O=c1ncc2ccoc2[nH]1
 14 15 0 0 0
SMALL
GASTEIGER
Energy = 0

@<TRIPOS>ATOM
      1 O          -1.7434    0.6987    0.0000 O.2     1  LIG1       -0.2446
      2 C          -1.0289    0.2862    0.0000 C.ar    1  LIG1        0.3484
      3 N          -0.3144    0.6987    0.0000 N.ar    1  LIG1       -0.2765
      4 C           0.4000    0.2862    0.0000 C.ar    1  LIG1        0.2107
      5 C           0.4000   -0.5388    0.0000 C.ar    1  LIG1        0.0562
      6 C           1.1846   -0.7938    0.0000 C.ar    1  LIG1       -0.0131
      7 C           1.6696   -0.1263    0.0000 C.ar    1  LIG1        0.0951
      8 O           1.1846    0.5411    0.0000 O.2     1  LIG1       -0.4466
      9 C          -0.3144   -0.9513    0.0000 C.ar    1  LIG1        0.0453
     10 N          -1.0289   -0.5388    0.0000 N.ar    1  LIG1       -0.2007
     11 H          -0.3144    1.7812    0.0000 H       1  LIG1        0.1734
     12 H           1.5249   -1.8414    0.0000 H       1  LIG1        0.0656
     13 H           2.7711   -0.1263    0.0000 H       1  LIG1        0.1030
     14 H          -0.3144   -2.0528    0.0000 H       1  LIG1        0.0839
@<TRIPOS>BOND
     1     1     2    2
     2     2     3   ar
     3     3     4   ar
     4     4     5   ar
     5     5     6   ar
     6     6     7   ar
     7     7     8   ar
     8     4     8   ar
     9     5     9   ar
    10     9    10   ar
    11     2    10   ar
    12     3    11    1
    13     6    12    1
    14     7    13    1
    15     9    14    1
