@<TRIPOS>MOLECULE
Cn1c(=O)ncc2c[nH]nc12
 17 18 0 0 0
SMALL
GASTEIGER
Energy = 0

@<TRIPOS>ATOM
      1 C           0.2950   -1.4059    0.0000 C.3     1  LIG1        0.0182
      2 N           0.2950   -0.5809    0.0000 N.ar    1  LIG1       -0.2782
      3 C           1.0095   -0.1684    0.0000 C.ar    1  LIG1        0.3497
      4 O           1.7239   -0.5809    0.0000 O.2     1  LIG1       -0.2445
      5 N           1.0095    0.6566    0.0000 N.ar    1  LIG1       -0.2006
      6 C           0.2950    1.0691    0.0000 C.ar    1  LIG1        0.0451
      7 C          -0.4195    0.6566    0.0000 C.ar    1  LIG1        0.0549
      8 C          -1.2041    0.9115    0.0000 C.ar    1  LIG1        0.0330
      9 N          -1.6890    0.2441    0.0000 N.ar    1  LIG1       -0.2821
     10 N          -1.2041   -0.4233    0.0000 N.ar    1  LIG1       -0.1553
     11 C          -0.4195   -0.1684    0.0000 C.ar    1  LIG1        0.1672
     12 H           1.3696   -1.7864    0.0000 H       1  LIG1        0.0458
     13 H          -0.2635   -1.8006   -0.9121 H       1  LIG1        0.0458
     14 H          -0.2352   -1.7806    0.9370 H       1  LIG1        0.0458
     15 H           0.2950    2.1706    0.0000 H       1  LIG1        0.0839
     16 H          -1.5445    1.9591    0.0000 H       1  LIG1        0.0831
     17 H          -2.7715    0.2441    0.0000 H       1  LIG1        0.1883
@<TRIPOS>BOND
     1     1     2    1
     2     2     3   ar
     3     3     4    2
     4     3     5   ar
     5     5     6   ar
     6     6     7   ar
     7     7     8   ar
     8     8     9   ar
     9     9    10   ar
    10    10    11   ar
    11     2    11   ar
    12     7    11   ar
    13     1    12    1
    14     1    13    1
    15     1    14    1
    16     6    15    1
    17     8    16    1
    18     9    17    1
