@<TRIPOS>MOLECULE
Cn1c(=O)[nH]c2cnncc12
 17 18 0 0 0
SMALL
GASTEIGER
Energy = 0

@<TRIPOS>ATOM
      1 C           0.8589   -1.3310    0.0000 C.3     1  LIG1        0.0168
      2 N           0.6039   -0.5464    0.0000 N.ar    1  LIG1       -0.2938
      3 C           1.0889    0.1210    0.0000 C.ar    1  LIG1        0.3274
      4 O           1.9139    0.1210    0.0000 O.2     1  LIG1       -0.2465
      5 N           0.6039    0.7885    0.0000 N.ar    1  LIG1       -0.3046
      6 C          -0.1807    0.5335    0.0000 C.ar    1  LIG1        0.0886
      7 C          -0.8951    0.9460    0.0000 C.ar    1  LIG1        0.0754
      8 N          -1.6096    0.5335    0.0000 N.ar    1  LIG1       -0.1555
      9 N          -1.6096   -0.2915    0.0000 N.ar    1  LIG1       -0.1555
     10 C          -0.8951   -0.7040    0.0000 C.ar    1  LIG1        0.0755
     11 C          -0.1807   -0.2915    0.0000 C.ar    1  LIG1        0.0907
     12 H           1.9985   -1.3608    0.0000 H       1  LIG1        0.0457
     13 H           0.4498   -1.8790   -0.9121 H       1  LIG1        0.0457
     14 H           0.4704   -1.8513    0.9370 H       1  LIG1        0.0457
     15 H           0.9384    1.8180    0.0000 H       1  LIG1        0.1705
     16 H          -0.8951    2.0475    0.0000 H       1  LIG1        0.0870
     17 H          -0.8951   -1.8055    0.0000 H       1  LIG1        0.0870
@<TRIPOS>BOND
     1     1     2    1
     2     2     3   ar
     3     3     4    2
     4     3     5   ar
     5     5     6   ar
     6     6     7   ar
     7     7     8   ar
     8     8     9   ar
     9     9    10   ar
    10    10    11   ar
    11     2    11   ar
    12     6    11   ar
    13     1    12    1
    14     1    13    1
    15     1    14    1
    16     5    15    1
    17     7    16    1
    18    10    17    1
