@<TRIPOS>MOLECULE
O=c1ccnc2ncccn12
 16 17 0 0 0
SMALL
GASTEIGER
Energy = 0

@<TRIPOS>ATOM
      1 O           0.6340   -1.4816    0.0000 O.2     1  LIG1       -0.2672
      2 C           0.6340   -0.6566    0.0000 C.ar    1  LIG1        0.2594
      3 C           1.3485   -0.2441    0.0000 C.ar    1  LIG1        0.0215
      4 C           1.3485    0.5809    0.0000 C.ar    1  LIG1        0.0365
      5 N           0.6340    0.9934    0.0000 N.ar    1  LIG1       -0.2200
      6 C          -0.0804    0.5809    0.0000 C.ar    1  LIG1        0.2374
      7 N          -0.7949    0.9934    0.0000 N.ar    1  LIG1       -0.2201
      8 C          -1.5094    0.5809    0.0000 C.ar    1  LIG1        0.0328
      9 C          -1.5094   -0.2441    0.0000 C.ar    1  LIG1       -0.0268
     10 C          -0.7949   -0.6566    0.0000 C.ar    1  LIG1        0.0175
     11 N          -0.0804   -0.2441    0.0000 N.ar    1  LIG1       -0.2523
     12 H           2.3024   -0.7949    0.0000 H       1  LIG1        0.0687
     13 H           2.3024    1.1317    0.0000 H       1  LIG1        0.0832
     14 H          -2.4633    1.1317    0.0000 H       1  LIG1        0.0831
     15 H          -2.4633   -0.7949    0.0000 H       1  LIG1        0.0647
     16 H          -0.7949   -1.7581    0.0000 H       1  LIG1        0.0815
@<TRIPOS>BOND
     1     1     2    2
     2     2     3   ar
     3     3     4   ar
     4     4     5   ar
     5     5     6   ar
     6     6     7   ar
     7     7     8   ar
     8     8     9   ar
     9     9    10   ar
    10    10    11   ar
    11     2    11   ar
    12     6    11   ar
    13     3    12    1
    14     4    13    1
    15     8    14    1
    16     9    15    1
    17    10    16    1
