@<TRIPOS>MOLECULE
O=c1nc2ccncc2c[nH]1
 16 17 0 0 0
SMALL
GASTEIGER
Energy = 0

@<TRIPOS>ATOM
      1 O           1.8920   -0.7321    0.0000 O.2     1  LIG1       -0.2447
      2 C           1.1776   -0.3196    0.0000 C.ar    1  LIG1        0.3464
      3 N           1.1776    0.5054    0.0000 N.ar    1  LIG1       -0.3123
      4 C           0.4631    0.9179    0.0000 C.ar    1  LIG1        0.0170
      5 C          -0.2514    0.5054    0.0000 C.ar    1  LIG1        0.0346
      6 C          -0.9658    0.9179    0.0000 C.ar    1  LIG1        0.0381
      7 N          -1.6803    0.5054    0.0000 N.ar    1  LIG1       -0.2625
      8 C          -1.6803   -0.3196    0.0000 C.ar    1  LIG1        0.0296
      9 C          -0.9658   -0.7321    0.0000 C.ar    1  LIG1       -0.0174
     10 C          -0.2514   -0.3196    0.0000 C.ar    1  LIG1        0.0807
     11 N           0.4631   -0.7321    0.0000 N.ar    1  LIG1       -0.1930
     12 H           2.1151    1.0467    0.0000 H       1  LIG1        0.1699
     13 H           0.4631    2.0194    0.0000 H       1  LIG1        0.0815
     14 H          -0.9658    2.0194    0.0000 H       1  LIG1        0.0837
     15 H          -2.6342   -0.8704    0.0000 H       1  LIG1        0.0830
     16 H          -0.9658   -1.8336    0.0000 H       1  LIG1        0.0654
@<TRIPOS>BOND
     1     1     2    2
     2     2     3   ar
     3     3     4   ar
     4     4     5   ar
     5     5     6   ar
     6     6     7   ar
     7     7     8   ar
     8     8     9   ar
     9     9    10   ar
    10     5    10   ar
    11    10    11   ar
    12     2    11   ar
    13     3    12    1
    14     4    13    1
    15     6    14    1
    16     8    15    1
    17     9    16    1
