@<TRIPOS>MOLECULE
c1cn2ccoc2n1
 12 13 0 0 0
SMALL
GASTEIGER
Energy = 0

@<TRIPOS>ATOM
      1 O           0.7696   -0.6370    0.0000 O.2     1  LIG1       -0.4309
      2 C           1.2545    0.0305    0.0000 C.ar    1  LIG1        0.1124
      3 C           0.7696    0.6979    0.0000 C.ar    1  LIG1        0.0490
      4 N          -0.0150    0.4430    0.0000 N.ar    1  LIG1       -0.2734
      5 C          -0.7996    0.6979    0.0000 C.ar    1  LIG1        0.0323
      6 C          -1.2846    0.0305    0.0000 C.ar    1  LIG1        0.0495
      7 N          -0.7996   -0.6370    0.0000 N.ar    1  LIG1       -0.2028
      8 C          -0.0150   -0.3820    0.0000 C.ar    1  LIG1        0.3073
      9 H           2.3560    0.0305    0.0000 H       1  LIG1        0.1046
     10 H           1.1100    1.7455    0.0000 H       1  LIG1        0.0845
     11 H          -1.1399    1.7455    0.0000 H       1  LIG1        0.0830
     12 H          -2.3861    0.0305    0.0000 H       1  LIG1        0.0846
@<TRIPOS>BOND
     1     1     2   ar
     2     2     3   ar
     3     3     4   ar
     4     4     5   ar
     5     5     6   ar
     6     6     7   ar
     7     7     8   ar
     8     1     8   ar
     9     4     8   ar
    10     2     9    1
    11     3    10    1
    12     5    11    1
    13     6    12    1
