@<TRIPOS>MOLECULE
c1nc2cnnnc2s1
 11 12 0 0 0
SMALL
GASTEIGER
Energy = 0

@<TRIPOS>ATOM
      1 S           0.8377   -0.5668    0.0000 S.2     1  LIG1       -0.0540
      2 C           1.3226    0.1006    0.0000 C.ar    1  LIG1        0.0675
      3 N           0.8377    0.7681    0.0000 N.ar    1  LIG1       -0.2442
      4 C           0.0530    0.5131    0.0000 C.ar    1  LIG1        0.1181
      5 C          -0.6614    0.9256    0.0000 C.ar    1  LIG1        0.0796
      6 N          -1.3759    0.5131    0.0000 N.ar    1  LIG1       -0.1356
      7 N          -1.3759   -0.3119    0.0000 N.ar    1  LIG1       -0.0422
      8 N          -0.6614   -0.7244    0.0000 N.ar    1  LIG1       -0.1205
      9 C           0.0530   -0.3119    0.0000 C.ar    1  LIG1        0.1532
     10 H           2.4241    0.1006    0.0000 H       1  LIG1        0.0908
     11 H          -0.6614    2.0271    0.0000 H       1  LIG1        0.0871
@<TRIPOS>BOND
     1     1     2   ar
     2     2     3   ar
     3     3     4   ar
     4     4     5   ar
     5     5     6   ar
     6     6     7   ar
     7     7     8   ar
     8     8     9   ar
     9     1     9   ar
    10     4     9   ar
    11     2    10    1
    12     5    11    1
