@<TRIPOS>MOLECULE
O=c1cc2sccn2c(=O)[nH]1
 15 16 0 0 0
SMALL
GASTEIGER
Energy = 0

@<TRIPOS>ATOM
      1 O           1.8374   -0.8339    0.0000 O.2     1  LIG1       -0.2677
      2 C           1.1229   -0.4214    0.0000 C.ar    1  LIG1        0.2550
      3 N           1.1229    0.4036    0.0000 N.ar    1  LIG1       -0.2746
      4 C           0.4084    0.8161    0.0000 C.ar    1  LIG1        0.3342
      5 O           0.4084    1.6411    0.0000 O.2     1  LIG1       -0.2461
      6 N          -0.3060    0.4036    0.0000 N.ar    1  LIG1       -0.2628
      7 C          -1.0907    0.6585    0.0000 C.ar    1  LIG1        0.0217
      8 C          -1.5756   -0.0089    0.0000 C.ar    1  LIG1       -0.0057
      9 S          -1.0907   -0.6763    0.0000 S.2     1  LIG1       -0.0774
     10 C          -0.3060   -0.4214    0.0000 C.ar    1  LIG1        0.0937
     11 C           0.4084   -0.8339    0.0000 C.ar    1  LIG1        0.0337
     12 H           2.0604    0.9449    0.0000 H       1  LIG1        0.1734
     13 H          -1.4311    1.7061    0.0000 H       1  LIG1        0.0820
     14 H          -2.6771   -0.0089    0.0000 H       1  LIG1        0.0709
     15 H           0.4084   -1.9354    0.0000 H       1  LIG1        0.0698
@<TRIPOS>BOND
     1     1     2    2
     2     2     3   ar
     3     3     4   ar
     4     4     5    2
     5     4     6   ar
     6     6     7   ar
     7     7     8   ar
     8     8     9   ar
     9     9    10   ar
    10     6    10   ar
    11    10    11   ar
    12     2    11   ar
    13     3    12    1
    14     7    13    1
    15     8    14    1
    16    11    15    1
