@<TRIPOS>MOLECULE
Cn1ncn2ccnc2c1=O
 17 18 0 0 0
SMALL
GASTEIGER
Energy = 0

@<TRIPOS>ATOM
      1 C           1.7360   -0.5695    0.0000 C.3     1  LIG1        0.0341
      2 N           1.0215   -0.1570    0.0000 N.ar    1  LIG1       -0.2282
      3 N           1.0215    0.6680    0.0000 N.ar    1  LIG1       -0.1583
      4 C           0.3071    1.0805    0.0000 C.ar    1  LIG1        0.1223
      5 N          -0.4074    0.6680    0.0000 N.ar    1  LIG1       -0.2846
      6 C          -1.1920    0.9229    0.0000 C.ar    1  LIG1        0.0309
      7 C          -1.6770    0.2555    0.0000 C.ar    1  LIG1        0.0466
      8 N          -1.1920   -0.4119    0.0000 N.ar    1  LIG1       -0.2313
      9 C          -0.4074   -0.1570    0.0000 C.ar    1  LIG1        0.2060
     10 C           0.3071   -0.5695    0.0000 C.ar    1  LIG1        0.3100
     11 O           0.3071   -1.3945    0.0000 O.2     1  LIG1       -0.2622
     12 H           2.6028    0.1709    0.0000 H       1  LIG1        0.0474
     13 H           1.7986   -1.2505   -0.9121 H       1  LIG1        0.0474
     14 H           1.7954   -1.2161    0.9370 H       1  LIG1        0.0474
     15 H           0.3071    2.1820    0.0000 H       1  LIG1        0.1051
     16 H          -1.5323    1.9705    0.0000 H       1  LIG1        0.0829
     17 H          -2.7785    0.2555    0.0000 H       1  LIG1        0.0845
@<TRIPOS>BOND
     1     1     2    1
     2     2     3   ar
     3     3     4   ar
     4     4     5   ar
     5     5     6   ar
     6     6     7   ar
     7     7     8   ar
     8     8     9   ar
     9     5     9   ar
    10     9    10   ar
    11     2    10   ar
    12    10    11    2
    13     1    12    1
    14     1    13    1
    15     1    14    1
    16     4    15    1
    17     6    16    1
    18     7    17    1
