@<TRIPOS>MOLECULE
Cn1c(=O)ccc2cn[nH]c12
 18 19 0 0 0
SMALL
GASTEIGER
Energy = 0

@<TRIPOS>ATOM
      1 C          -0.3092   -1.3967    0.0000 C.3     1  LIG1        0.0166
      2 N          -0.3092   -0.5717    0.0000 N.ar    1  LIG1       -0.2963
      3 C          -1.0236   -0.1592    0.0000 C.ar    1  LIG1        0.2526
      4 O          -1.7381   -0.5717    0.0000 O.2     1  LIG1       -0.2677
      5 C          -1.0236    0.6658    0.0000 C.ar    1  LIG1        0.0037
      6 C          -0.3092    1.0783    0.0000 C.ar    1  LIG1       -0.0445
      7 C           0.4053    0.6658    0.0000 C.ar    1  LIG1        0.0369
      8 C           0.4053   -0.1592    0.0000 C.ar    1  LIG1        0.1387
      9 N           1.1899   -0.4141    0.0000 N.ar    1  LIG1       -0.2615
     10 N           1.6749    0.2533    0.0000 N.ar    1  LIG1       -0.1799
     11 C           1.1899    0.9208    0.0000 C.ar    1  LIG1        0.0584
     12 H          -1.3838   -1.7772    0.0000 H       1  LIG1        0.0457
     13 H           0.2493   -1.7914    0.9121 H       1  LIG1        0.0457
     14 H           0.2210   -1.7714   -0.9370 H       1  LIG1        0.0457
     15 H          -1.9775    1.2165    0.0000 H       1  LIG1        0.0672
     16 H          -0.3092    2.1798    0.0000 H       1  LIG1        0.0627
     17 H           1.5244   -1.4436    0.0000 H       1  LIG1        0.1905
     18 H           1.5302    1.9684    0.0000 H       1  LIG1        0.0854
@<TRIPOS>BOND
     1     1     2    1
     2     2     3   ar
     3     3     4    2
     4     3     5   ar
     5     5     6   ar
     6     6     7   ar
     7     7     8   ar
     8     2     8   ar
     9     8     9   ar
    10     9    10   ar
    11    10    11   ar
    12     7    11   ar
    13     1    12    1
    14     1    13    1
    15     1    14    1
    16     5    15    1
    17     6    16    1
    18     9    17    1
    19    11    18    1
