@<TRIPOS>MOLECULE
Cn1cccnc1=O
 14 14 0 0 0
SMALL
GASTEIGER
Energy = 0

@<TRIPOS>ATOM
      1 C           0.2334   -1.3248    0.0000 C.3     1  LIG1        0.0161
      2 N           0.2334   -0.4998    0.0000 N.ar    1  LIG1       -0.3022
      3 C           0.9479   -0.0873    0.0000 C.ar    1  LIG1        0.0105
      4 C           0.9479    0.7377    0.0000 C.ar    1  LIG1       -0.0272
      5 C           0.2334    1.1502    0.0000 C.ar    1  LIG1        0.0344
      6 N          -0.4811    0.7377    0.0000 N.ar    1  LIG1       -0.2014
      7 C          -0.4811   -0.0873    0.0000 C.ar    1  LIG1        0.3481
      8 O          -1.1955   -0.4998    0.0000 O.2     1  LIG1       -0.2445
      9 H           1.3080   -1.7053    0.0000 H       1  LIG1        0.0457
     10 H          -0.3251   -1.7195   -0.9121 H       1  LIG1        0.0457
     11 H          -0.2968   -1.6995    0.9370 H       1  LIG1        0.0457
     12 H           1.9018   -0.6381    0.0000 H       1  LIG1        0.0811
     13 H           1.9018    1.2885    0.0000 H       1  LIG1        0.0647
     14 H           0.2334    2.2517    0.0000 H       1  LIG1        0.0832
@<TRIPOS>BOND
     1     1     2    1
     2     2     3   ar
     3     3     4   ar
     4     4     5   ar
     5     5     6   ar
     6     6     7   ar
     7     2     7   ar
     8     7     8    2
     9     1     9    1
    10     1    10    1
    11     1    11    1
    12     3    12    1
    13     4    13    1
    14     5    14    1
