@<TRIPOS>MOLECULE
O=c1ccc2[nH]cnc2[nH]1
 15 16 0 0 0
SMALL
GASTEIGER
Energy = 0

@<TRIPOS>ATOM
      1 O          -1.7592    0.7109    0.0000 O.2     1  LIG1       -0.2679
      2 C          -1.0447    0.2984    0.0000 C.ar    1  LIG1        0.2503
      3 N          -0.3303    0.7109    0.0000 N.ar    1  LIG1       -0.3058
      4 C           0.3842    0.2984    0.0000 C.ar    1  LIG1        0.1588
      5 C           0.3842   -0.5266    0.0000 C.ar    1  LIG1        0.0834
      6 N           1.1688   -0.7816    0.0000 N.ar    1  LIG1       -0.3432
      7 C           1.6538   -0.1141    0.0000 C.ar    1  LIG1        0.0961
      8 N           1.1688    0.5533    0.0000 N.ar    1  LIG1       -0.2183
      9 C          -0.3303   -0.9391    0.0000 C.ar    1  LIG1       -0.0296
     10 C          -1.0447   -0.5266    0.0000 C.ar    1  LIG1        0.0048
     11 H          -0.3303    1.7934    0.0000 H       1  LIG1        0.1704
     12 H           1.5033   -1.8111    0.0000 H       1  LIG1        0.1668
     13 H           2.7553   -0.1141    0.0000 H       1  LIG1        0.1027
     14 H          -0.3303   -2.0406    0.0000 H       1  LIG1        0.0641
     15 H          -1.9986   -1.0773    0.0000 H       1  LIG1        0.0672
@<TRIPOS>BOND
     1     1     2    2
     2     2     3   ar
     3     3     4   ar
     4     4     5   ar
     5     5     6   ar
     6     6     7   ar
     7     7     8   ar
     8     4     8   ar
     9     5     9   ar
    10     9    10   ar
    11     2    10   ar
    12     3    11    1
    13     6    12    1
    14     7    13    1
    15     9    14    1
    16    10    15    1
