@<TRIPOS>MOLECULE
Cn1ccn2nccc2c1=O
 18 19 0 0 0
SMALL
GASTEIGER
Energy = 0

@<TRIPOS>ATOM
      1 C           1.7503   -0.5789    0.0000 C.3     1  LIG1        0.0148
      2 N           1.0359   -0.1664    0.0000 N.ar    1  LIG1       -0.3151
      3 C           1.0359    0.6586    0.0000 C.ar    1  LIG1        0.0258
      4 C           0.3214    1.0711    0.0000 C.ar    1  LIG1        0.0461
      5 N          -0.3931    0.6586    0.0000 N.ar    1  LIG1       -0.2332
      6 N          -1.1777    0.9136    0.0000 N.ar    1  LIG1       -0.1746
      7 C          -1.6626    0.2461    0.0000 C.ar    1  LIG1        0.0505
      8 C          -1.1777   -0.4213    0.0000 C.ar    1  LIG1       -0.0112
      9 C          -0.3931   -0.1664    0.0000 C.ar    1  LIG1        0.1311
     10 C           0.3214   -0.5789    0.0000 C.ar    1  LIG1        0.2767
     11 O           0.3214   -1.4039    0.0000 O.2     1  LIG1       -0.2654
     12 H           2.6172    0.1614    0.0000 H       1  LIG1        0.0457
     13 H           1.8128   -1.2599   -0.9121 H       1  LIG1        0.0457
     14 H           1.8097   -1.2255    0.9370 H       1  LIG1        0.0457
     15 H           1.9898    1.2094    0.0000 H       1  LIG1        0.0825
     16 H           0.3214    2.1726    0.0000 H       1  LIG1        0.0845
     17 H          -2.7641    0.2461    0.0000 H       1  LIG1        0.0848
     18 H          -1.5181   -1.4689    0.0000 H       1  LIG1        0.0656
@<TRIPOS>BOND
     1     1     2    1
     2     2     3   ar
     3     3     4   ar
     4     4     5   ar
     5     5     6   ar
     6     6     7   ar
     7     7     8   ar
     8     8     9   ar
     9     5     9   ar
    10     9    10   ar
    11     2    10   ar
    12    10    11    2
    13     1    12    1
    14     1    13    1
    15     1    14    1
    16     3    15    1
    17     4    16    1
    18     7    17    1
    19     8    18    1
