@<TRIPOS>MOLECULE
Cn1ncc2cnncc12
 16 17 0 0 0
SMALL
GASTEIGER
Energy = 0

@<TRIPOS>ATOM
      1 C           1.0904   -1.3055    0.0000 C.3     1  LIG1        0.0309
      2 N           0.8354   -0.5209    0.0000 N.ar    1  LIG1       -0.2652
      3 N           1.3204    0.1466    0.0000 N.ar    1  LIG1       -0.1787
      4 C           0.8354    0.8140    0.0000 C.ar    1  LIG1        0.0587
      5 C           0.0508    0.5591    0.0000 C.ar    1  LIG1        0.0410
      6 C          -0.6636    0.9716    0.0000 C.ar    1  LIG1        0.0606
      7 N          -1.3781    0.5591    0.0000 N.ar    1  LIG1       -0.1569
      8 N          -1.3781   -0.2659    0.0000 N.ar    1  LIG1       -0.1556
      9 C          -0.6636   -0.6784    0.0000 C.ar    1  LIG1        0.0755
     10 C           0.0508   -0.2659    0.0000 C.ar    1  LIG1        0.0898
     11 H           2.2300   -1.3353    0.0000 H       1  LIG1        0.0473
     12 H           0.6813   -1.8535   -0.9121 H       1  LIG1        0.0473
     13 H           0.7019   -1.8258    0.9370 H       1  LIG1        0.0473
     14 H           1.1757    1.8616    0.0000 H       1  LIG1        0.0854
     15 H          -0.6636    2.0731    0.0000 H       1  LIG1        0.0855
     16 H          -0.6636   -1.7799    0.0000 H       1  LIG1        0.0870
@<TRIPOS>BOND
     1     1     2    1
     2     2     3   ar
     3     3     4   ar
     4     4     5   ar
     5     5     6   ar
     6     6     7   ar
     7     7     8   ar
     8     8     9   ar
     9     9    10   ar
    10     2    10   ar
    11     5    10   ar
    12     1    11    1
    13     1    12    1
    14     1    13    1
    15     4    14    1
    16     6    15    1
    17     9    16    1
