@<TRIPOS>MOLECULE
Cn1ncn2c(=O)ncnc12
 16 17 0 0 0
SMALL
GASTEIGER
Energy = 0

@<TRIPOS>ATOM
      1 C           1.1526   -1.5043    0.0000 C.3     1  LIG1        0.0339
      2 N           0.8977   -0.7196    0.0000 N.ar    1  LIG1       -0.2337
      3 N           1.3826   -0.0522    0.0000 N.ar    1  LIG1       -0.1583
      4 C           0.8977    0.6152    0.0000 C.ar    1  LIG1        0.1278
      5 N           0.1131    0.3603    0.0000 N.ar    1  LIG1       -0.2175
      6 C          -0.6014    0.7728    0.0000 C.ar    1  LIG1        0.3577
      7 O          -0.6014    1.5978    0.0000 O.2     1  LIG1       -0.2439
      8 N          -1.3159    0.3603    0.0000 N.ar    1  LIG1       -0.1810
      9 C          -1.3159   -0.4647    0.0000 C.ar    1  LIG1        0.1252
     10 N          -0.6014   -0.8772    0.0000 N.ar    1  LIG1       -0.2003
     11 C           0.1131   -0.4647    0.0000 C.ar    1  LIG1        0.2379
     12 H           2.2922   -1.5342    0.0000 H       1  LIG1        0.0474
     13 H           0.7434   -2.0522   -0.9121 H       1  LIG1        0.0474
     14 H           0.7641   -2.0245    0.9370 H       1  LIG1        0.0474
     15 H           1.2381    1.6628    0.0000 H       1  LIG1        0.1053
     16 H          -2.2698   -1.0155    0.0000 H       1  LIG1        0.1050
@<TRIPOS>BOND
     1     1     2    1
     2     2     3   ar
     3     3     4   ar
     4     4     5   ar
     5     5     6   ar
     6     6     7    2
     7     6     8   ar
     8     8     9   ar
     9     9    10   ar
    10    10    11   ar
    11     2    11   ar
    12     5    11   ar
    13     1    12    1
    14     1    13    1
    15     1    14    1
    16     4    15    1
    17     9    16    1
