@<TRIPOS>MOLECULE
O=c1cncc[nH]1
 11 11 0 0 0
SMALL
GASTEIGER
Energy = 0

@<TRIPOS>ATOM
      1 O          -0.0000   -1.3632    0.0000 O.2     1  LIG1       -0.2663
      2 C          -0.0000   -0.5382    0.0000 C.ar    1  LIG1        0.2669
      3 N           0.7145   -0.1257    0.0000 N.ar    1  LIG1       -0.3264
      4 C           0.7145    0.6993    0.0000 C.ar    1  LIG1        0.0230
      5 C           0.0000    1.1118    0.0000 C.ar    1  LIG1        0.0437
      6 N          -0.7145    0.6993    0.0000 N.ar    1  LIG1       -0.2565
      7 C          -0.7145   -0.1257    0.0000 C.ar    1  LIG1        0.0918
      8 H           1.6520   -0.6670    0.0000 H       1  LIG1        0.1684
      9 H           1.6684    1.2501    0.0000 H       1  LIG1        0.0823
     10 H           0.0000    2.2133    0.0000 H       1  LIG1        0.0844
     11 H          -1.6684   -0.6765    0.0000 H       1  LIG1        0.0885
@<TRIPOS>BOND
     1     1     2    2
     2     2     3   ar
     3     3     4   ar
     4     4     5   ar
     5     5     6   ar
     6     6     7   ar
     7     2     7   ar
     8     3     8    1
     9     4     9    1
    10     5    10    1
    11     7    11    1
