@<TRIPOS>MOLECULE
Cn1ncc2nccc(=O)n12
 17 18 0 0 0
SMALL
GASTEIGER
Energy = 0

@<TRIPOS>ATOM
      1 C           1.1344   -1.1443    0.0000 C.3     1  LIG1        0.0485
      2 N           0.8794   -0.3597    0.0000 N.ar    1  LIG1       -0.1980
      3 N           1.3644    0.3078    0.0000 N.ar    1  LIG1       -0.1598
      4 C           0.8794    0.9752    0.0000 C.ar    1  LIG1        0.0936
      5 C           0.0948    0.7203    0.0000 C.ar    1  LIG1        0.1773
      6 N          -0.6196    1.1328    0.0000 N.ar    1  LIG1       -0.2346
      7 C          -1.3341    0.7203    0.0000 C.ar    1  LIG1        0.0352
      8 C          -1.3341   -0.1047    0.0000 C.ar    1  LIG1        0.0229
      9 C          -0.6196   -0.5172    0.0000 C.ar    1  LIG1        0.2744
     10 O          -0.6196   -1.3422    0.0000 O.2     1  LIG1       -0.2658
     11 N           0.0948   -0.1047    0.0000 N.ar    1  LIG1       -0.1812
     12 H           2.2740   -1.1741    0.0000 H       1  LIG1        0.0490
     13 H           0.7253   -1.6923   -0.9121 H       1  LIG1        0.0490
     14 H           0.7459   -1.6646    0.9370 H       1  LIG1        0.0490
     15 H           1.2197    2.0228    0.0000 H       1  LIG1        0.0886
     16 H          -2.2880    1.2711    0.0000 H       1  LIG1        0.0832
     17 H          -2.2880   -0.6555    0.0000 H       1  LIG1        0.0687
@<TRIPOS>BOND
     1     1     2    1
     2     2     3   ar
     3     3     4   ar
     4     4     5   ar
     5     5     6   ar
     6     6     7   ar
     7     7     8   ar
     8     8     9   ar
     9     9    10    2
    10     9    11   ar
    11     2    11   ar
    12     5    11   ar
    13     1    12    1
    14     1    13    1
    15     1    14    1
    16     4    15    1
    17     7    16    1
    18     8    17    1
