@<TRIPOS>MOLECULE
Cn1ccc2nc(=O)ncn12
 17 18 0 0 0
SMALL
GASTEIGER
Energy = 0

@<TRIPOS>ATOM
      1 C           1.3304   -1.4134    0.0000 C.3     1  LIG1        0.0288
      2 N           1.0755   -0.6288    0.0000 N.ar    1  LIG1       -0.2874
      3 C           1.5604    0.0387    0.0000 C.ar    1  LIG1        0.0258
      4 C           1.0755    0.7061    0.0000 C.ar    1  LIG1        0.0004
      5 C           0.2909    0.4512    0.0000 C.ar    1  LIG1        0.1606
      6 N          -0.4236    0.8637    0.0000 N.ar    1  LIG1       -0.1723
      7 C          -1.1381    0.4512    0.0000 C.ar    1  LIG1        0.3709
      8 O          -1.8525    0.8637    0.0000 O.2     1  LIG1       -0.2425
      9 N          -1.1381   -0.3738    0.0000 N.ar    1  LIG1       -0.1800
     10 C          -0.4236   -0.7863    0.0000 C.ar    1  LIG1        0.1233
     11 N           0.2909   -0.3738    0.0000 N.ar    1  LIG1       -0.2237
     12 H           2.4700   -1.4433    0.0000 H       1  LIG1        0.0472
     13 H           0.9212   -1.9613   -0.9121 H       1  LIG1        0.0472
     14 H           0.9419   -1.9336    0.9370 H       1  LIG1        0.0472
     15 H           2.6619    0.0387    0.0000 H       1  LIG1        0.0826
     16 H           1.4159    1.7537    0.0000 H       1  LIG1        0.0670
     17 H          -0.4236   -1.8878    0.0000 H       1  LIG1        0.1049
@<TRIPOS>BOND
     1     1     2    1
     2     2     3   ar
     3     3     4   ar
     4     4     5   ar
     5     5     6   ar
     6     6     7   ar
     7     7     8    2
     8     7     9   ar
     9     9    10   ar
    10    10    11   ar
    11     2    11   ar
    12     5    11   ar
    13     1    12    1
    14     1    13    1
    15     1    14    1
    16     3    15    1
    17     4    16    1
    18    10    17    1
