@<TRIPOS>MOLECULE
Cn1ccc2cnnc2c1
 17 18 0 0 0
SMALL
GASTEIGER
Energy = 0

@<TRIPOS>ATOM
      1 C           1.8112   -0.7293    0.0000 C.3     1  LIG1        0.0114
      2 N           1.0967   -0.3168    0.0000 N.ar    1  LIG1       -0.3542
      3 C           1.0967    0.5082    0.0000 C.ar    1  LIG1        0.0050
      4 C           0.3823    0.9207    0.0000 C.ar    1  LIG1       -0.0348
      5 C          -0.3322    0.5082    0.0000 C.ar    1  LIG1        0.0247
      6 C          -1.1168    0.7631    0.0000 C.ar    1  LIG1        0.0592
      7 N          -1.6017    0.0957    0.0000 N.ar    1  LIG1       -0.1564
      8 N          -1.1168   -0.5718    0.0000 N.ar    1  LIG1       -0.1477
      9 C          -0.3322   -0.3168    0.0000 C.ar    1  LIG1        0.1108
     10 C           0.3823   -0.7293    0.0000 C.ar    1  LIG1        0.0321
     11 H           2.6780    0.0111    0.0000 H       1  LIG1        0.0455
     12 H           1.8738   -1.4103   -0.9121 H       1  LIG1        0.0455
     13 H           1.8706   -1.3759    0.9370 H       1  LIG1        0.0455
     14 H           2.0506    1.0589    0.0000 H       1  LIG1        0.0809
     15 H           0.3823    2.0222    0.0000 H       1  LIG1        0.0639
     16 H          -1.4572    1.8107    0.0000 H       1  LIG1        0.0855
     17 H           0.3823   -1.8308    0.0000 H       1  LIG1        0.0831
@<TRIPOS>BOND
     1     1     2    1
     2     2     3   ar
     3     3     4   ar
     4     4     5   ar
     5     5     6   ar
     6     6     7   ar
     7     7     8   ar
     8     8     9   ar
     9     5     9   ar
    10     9    10   ar
    11     2    10   ar
    12     1    11    1
    13     1    12    1
    14     1    13    1
    15     3    14    1
    16     4    15    1
    17     6    16    1
    18    10    17    1
