@<TRIPOS>MOLECULE
O=c1nc2cc[nH]c2c[nH]1
 15 16 0 0 0
SMALL
GASTEIGER
Energy = 0

@<TRIPOS>ATOM
      1 O           1.7252   -0.7274    0.0000 O.2     1  LIG1       -0.2447
      2 C           1.0108   -0.3149    0.0000 C.ar    1  LIG1        0.3465
      3 N           1.0108    0.5101    0.0000 N.ar    1  LIG1       -0.3110
      4 C           0.2963    0.9226    0.0000 C.ar    1  LIG1        0.0318
      5 C          -0.4182    0.5101    0.0000 C.ar    1  LIG1        0.0814
      6 N          -1.2028    0.7650    0.0000 N.ar    1  LIG1       -0.3583
      7 C          -1.6877    0.0976    0.0000 C.ar    1  LIG1        0.0043
      8 C          -1.2028   -0.5699    0.0000 C.ar    1  LIG1       -0.0181
      9 C          -0.4182   -0.3149    0.0000 C.ar    1  LIG1        0.0953
     10 N           0.2963   -0.7274    0.0000 N.ar    1  LIG1       -0.1916
     11 H           1.9483    1.0514    0.0000 H       1  LIG1        0.1699
     12 H           0.2963    2.0241    0.0000 H       1  LIG1        0.0830
     13 H          -1.5373    1.7945    0.0000 H       1  LIG1        0.1654
     14 H          -2.7892    0.0976    0.0000 H       1  LIG1        0.0807
     15 H          -1.5432   -1.6175    0.0000 H       1  LIG1        0.0654
@<TRIPOS>BOND
     1     1     2    2
     2     2     3   ar
     3     3     4   ar
     4     4     5   ar
     5     5     6   ar
     6     6     7   ar
     7     7     8   ar
     8     8     9   ar
     9     5     9   ar
    10     9    10   ar
    11     2    10   ar
    12     3    11    1
    13     4    12    1
    14     6    13    1
    15     7    14    1
    16     8    15    1
