@<TRIPOS>MOLECULE
O=c1[nH]c(=O)c2cncnc2[nH]1
 16 17 0 0 0
SMALL
GASTEIGER
Energy = 0

@<TRIPOS>ATOM
      1 O           1.8578   -0.8972    0.0000 O.2     1  LIG1       -0.2466
      2 C           1.1433   -0.4847    0.0000 C.ar    1  LIG1        0.3283
      3 N           1.1433    0.3403    0.0000 N.ar    1  LIG1       -0.2745
      4 C           0.4289    0.7528    0.0000 C.ar    1  LIG1        0.2647
      5 O           0.4289    1.5778    0.0000 O.2     1  LIG1       -0.2670
      6 C          -0.2856    0.3403    0.0000 C.ar    1  LIG1        0.0998
      7 C          -1.0001    0.7528    0.0000 C.ar    1  LIG1        0.0452
      8 N          -1.7146    0.3403    0.0000 N.ar    1  LIG1       -0.2428
      9 C          -1.7146   -0.4847    0.0000 C.ar    1  LIG1        0.1182
     10 N          -1.0001   -0.8972    0.0000 N.ar    1  LIG1       -0.2176
     11 C          -0.2856   -0.4847    0.0000 C.ar    1  LIG1        0.1503
     12 N           0.4289   -0.8972    0.0000 N.ar    1  LIG1       -0.2919
     13 H           2.0808    0.8815    0.0000 H       1  LIG1        0.1734
     14 H          -1.0001    1.8543    0.0000 H       1  LIG1        0.0839
     15 H          -2.6685   -1.0355    0.0000 H       1  LIG1        0.1047
     16 H           0.4289   -1.9797    0.0000 H       1  LIG1        0.1718
@<TRIPOS>BOND
     1     1     2    2
     2     2     3   ar
     3     3     4   ar
     4     4     5    2
     5     4     6   ar
     6     6     7   ar
     7     7     8   ar
     8     8     9   ar
     9     9    10   ar
    10    10    11   ar
    11     6    11   ar
    12    11    12   ar
    13     2    12   ar
    14     3    13    1
    15     7    14    1
    16     9    15    1
    17    12    16    1
