@<TRIPOS>MOLECULE
Cn1ccc2ncnn2c1=O
 17 18 0 0 0
SMALL
GASTEIGER
Energy = 0

@<TRIPOS>ATOM
      1 C           1.7667   -0.5616    0.0000 C.3     1  LIG1        0.0161
      2 N           1.0522   -0.1491    0.0000 N.ar    1  LIG1       -0.3020
      3 C           1.0522    0.6759    0.0000 C.ar    1  LIG1        0.0126
      4 C           0.3377    1.0884    0.0000 C.ar    1  LIG1       -0.0010
      5 C          -0.3768    0.6759    0.0000 C.ar    1  LIG1        0.1624
      6 N          -1.1614    0.9308    0.0000 N.ar    1  LIG1       -0.2146
      7 C          -1.6463    0.2634    0.0000 C.ar    1  LIG1        0.1392
      8 N          -1.1614   -0.4040    0.0000 N.ar    1  LIG1       -0.1492
      9 N          -0.3768   -0.1491    0.0000 N.ar    1  LIG1       -0.1620
     10 C           0.3377   -0.5616    0.0000 C.ar    1  LIG1        0.3512
     11 O           0.3377   -1.3866    0.0000 O.2     1  LIG1       -0.2444
     12 H           2.6335    0.1788    0.0000 H       1  LIG1        0.0457
     13 H           1.8293   -1.2426   -0.9121 H       1  LIG1        0.0457
     14 H           1.8261   -1.2082    0.9370 H       1  LIG1        0.0457
     15 H           2.0061    1.2267    0.0000 H       1  LIG1        0.0811
     16 H           0.3377    2.1899    0.0000 H       1  LIG1        0.0669
     17 H          -2.7478    0.2634    0.0000 H       1  LIG1        0.1066
@<TRIPOS>BOND
     1     1     2    1
     2     2     3   ar
     3     3     4   ar
     4     4     5   ar
     5     5     6   ar
     6     6     7   ar
     7     7     8   ar
     8     8     9   ar
     9     5     9   ar
    10     9    10   ar
    11     2    10   ar
    12    10    11    2
    13     1    12    1
    14     1    13    1
    15     1    14    1
    16     3    15    1
    17     4    16    1
    18     7    17    1
