@<TRIPOS>MOLECULE
O=c1ccc2ncoc2[nH]1
 14 15 0 0 0
SMALL
GASTEIGER
Energy = 0

@<TRIPOS>ATOM
      1 O          -1.7768    0.7025    0.0000 O.2     1  LIG1       -0.2678
      2 C          -1.0624    0.2900    0.0000 C.ar    1  LIG1        0.2514
      3 N          -0.3479    0.7025    0.0000 N.ar    1  LIG1       -0.2916
      4 C           0.3666    0.2900    0.0000 C.ar    1  LIG1        0.2286
      5 C           0.3666   -0.5350    0.0000 C.ar    1  LIG1        0.1272
      6 C          -0.3479   -0.9475    0.0000 C.ar    1  LIG1       -0.0259
      7 C          -1.0624   -0.5350    0.0000 C.ar    1  LIG1        0.0050
      8 N           1.1512   -0.7899    0.0000 N.ar    1  LIG1       -0.2145
      9 C           1.6361   -0.1225    0.0000 C.ar    1  LIG1        0.1850
     10 O           1.1512    0.5450    0.0000 O.2     1  LIG1       -0.4262
     11 H          -0.3479    1.7850    0.0000 H       1  LIG1        0.1719
     12 H          -0.3479   -2.0490    0.0000 H       1  LIG1        0.0642
     13 H          -2.0163   -1.0858    0.0000 H       1  LIG1        0.0672
     14 H           2.7376   -0.1225    0.0000 H       1  LIG1        0.1256
@<TRIPOS>BOND
     1     1     2    2
     2     2     3   ar
     3     3     4   ar
     4     4     5   ar
     5     5     6   ar
     6     6     7   ar
     7     2     7   ar
     8     5     8   ar
     9     8     9   ar
    10     9    10   ar
    11     4    10   ar
    12     3    11    1
    13     6    12    1
    14     7    13    1
    15     9    14    1
