@<TRIPOS>MOLECULE
Cn1ccc2cncnc12
 17 18 0 0 0
SMALL
GASTEIGER
Energy = 0

@<TRIPOS>ATOM
      1 C           1.1000   -1.2967    0.0000 C.3     1  LIG1        0.0132
      2 N           0.8450   -0.5120    0.0000 N.ar    1  LIG1       -0.3348
      3 C           1.3300    0.1554    0.0000 C.ar    1  LIG1        0.0068
      4 C           0.8450    0.8228    0.0000 C.ar    1  LIG1       -0.0334
      5 C           0.0604    0.5679    0.0000 C.ar    1  LIG1        0.0369
      6 C          -0.6541    0.9804    0.0000 C.ar    1  LIG1        0.0400
      7 N          -1.3685    0.5679    0.0000 N.ar    1  LIG1       -0.2430
      8 C          -1.3685   -0.2571    0.0000 C.ar    1  LIG1        0.1182
      9 N          -0.6541   -0.6696    0.0000 N.ar    1  LIG1       -0.2178
     10 C           0.0604   -0.2571    0.0000 C.ar    1  LIG1        0.1436
     11 H           2.2396   -1.3265    0.0000 H       1  LIG1        0.0456
     12 H           0.6909   -1.8446   -0.9121 H       1  LIG1        0.0456
     13 H           0.7115   -1.8170    0.9370 H       1  LIG1        0.0456
     14 H           2.4315    0.1554    0.0000 H       1  LIG1        0.0809
     15 H           1.1853    1.8704    0.0000 H       1  LIG1        0.0640
     16 H          -0.6541    2.0819    0.0000 H       1  LIG1        0.0837
     17 H          -2.3224   -0.8078    0.0000 H       1  LIG1        0.1047
@<TRIPOS>BOND
     1     1     2    1
     2     2     3   ar
     3     3     4   ar
     4     4     5   ar
     5     5     6   ar
     6     6     7   ar
     7     7     8   ar
     8     8     9   ar
     9     9    10   ar
    10     2    10   ar
    11     5    10   ar
    12     1    11    1
    13     1    12    1
    14     1    13    1
    15     3    14    1
    16     4    15    1
    17     6    16    1
    18     8    17    1
