@<TRIPOS>MOLECULE
c1cn2occc2n1
 12 13 0 0 0
SMALL
GASTEIGER
Energy = 0

@<TRIPOS>ATOM
      1 O           0.7696   -0.6467    0.0000 O.2     1  LIG1       -0.3794
      2 C           1.2545    0.0207    0.0000 C.ar    1  LIG1        0.1243
      3 C           0.7696    0.6881    0.0000 C.ar    1  LIG1        0.0213
      4 C          -0.0150    0.4332    0.0000 C.ar    1  LIG1        0.1721
      5 N          -0.7996    0.6881    0.0000 N.ar    1  LIG1       -0.2334
      6 C          -1.2846    0.0207    0.0000 C.ar    1  LIG1        0.0495
      7 C          -0.7996   -0.6467    0.0000 C.ar    1  LIG1        0.0650
      8 N          -0.0150   -0.3918    0.0000 N.ar    1  LIG1       -0.1644
      9 H           2.3560    0.0207    0.0000 H       1  LIG1        0.1057
     10 H           1.1100    1.7357    0.0000 H       1  LIG1        0.0687
     11 H          -2.3861    0.0207    0.0000 H       1  LIG1        0.0846
     12 H          -1.1399   -1.6943    0.0000 H       1  LIG1        0.0860
@<TRIPOS>BOND
     1     1     2   ar
     2     2     3   ar
     3     3     4   ar
     4     4     5   ar
     5     5     6   ar
     6     6     7   ar
     7     7     8   ar
     8     1     8   ar
     9     4     8   ar
    10     2     9    1
    11     3    10    1
    12     6    11    1
    13     7    12    1
