@<TRIPOS>MOLECULE
O=c1ncc2ncc[nH]c2n1
 15 16 0 0 0
SMALL
GASTEIGER
Energy = 0

@<TRIPOS>ATOM
      1 O           1.8955   -0.7277    0.0000 O.2     1  LIG1       -0.2426
      2 C           1.1810   -0.3152    0.0000 C.ar    1  LIG1        0.3696
      3 N           1.1810    0.5098    0.0000 N.ar    1  LIG1       -0.1977
      4 C           0.4666    0.9223    0.0000 C.ar    1  LIG1        0.0620
      5 C          -0.2479    0.5098    0.0000 C.ar    1  LIG1        0.1243
      6 N          -0.9624    0.9223    0.0000 N.ar    1  LIG1       -0.2489
      7 C          -1.6768    0.5098    0.0000 C.ar    1  LIG1        0.0444
      8 C          -1.6768   -0.3152    0.0000 C.ar    1  LIG1        0.0216
      9 N          -0.9624   -0.7277    0.0000 N.ar    1  LIG1       -0.3430
     10 C          -0.2479   -0.3152    0.0000 C.ar    1  LIG1        0.1635
     11 N           0.4666   -0.7277    0.0000 N.ar    1  LIG1       -0.1721
     12 H           0.4666    2.0238    0.0000 H       1  LIG1        0.0854
     13 H          -2.6307    1.0605    0.0000 H       1  LIG1        0.0844
     14 H          -2.6307   -0.8659    0.0000 H       1  LIG1        0.0823
     15 H          -0.9624   -1.8102    0.0000 H       1  LIG1        0.1669
@<TRIPOS>BOND
     1     1     2    2
     2     2     3   ar
     3     3     4   ar
     4     4     5   ar
     5     5     6   ar
     6     6     7   ar
     7     7     8   ar
     8     8     9   ar
     9     9    10   ar
    10     5    10   ar
    11    10    11   ar
    12     2    11   ar
    13     4    12    1
    14     7    13    1
    15     8    14    1
    16     9    15    1
