@<TRIPOS>MOLECULE
c1cc2cocc2[nH]1
 13 14 0 0 0
SMALL
GASTEIGER
Energy = 0

@<TRIPOS>ATOM
      1 N           0.8189   -0.6544    0.0000 N.ar    1  LIG1       -0.3582
      2 C           1.3038    0.0131    0.0000 C.ar    1  LIG1        0.0029
      3 C           0.8189    0.6805    0.0000 C.ar    1  LIG1       -0.0336
      4 C           0.0343    0.4256    0.0000 C.ar    1  LIG1        0.0374
      5 C          -0.7504    0.6805    0.0000 C.ar    1  LIG1        0.1009
      6 O          -1.2353    0.0131    0.0000 O.2     1  LIG1       -0.4683
      7 C          -0.7504   -0.6544    0.0000 C.ar    1  LIG1        0.1155
      8 C           0.0343   -0.3994    0.0000 C.ar    1  LIG1        0.0847
      9 H           1.1534   -1.6839    0.0000 H       1  LIG1        0.1654
     10 H           2.4053    0.0131    0.0000 H       1  LIG1        0.0807
     11 H           1.1593    1.7281    0.0000 H       1  LIG1        0.0639
     12 H          -1.0908    1.7281    0.0000 H       1  LIG1        0.1036
     13 H          -1.0908   -1.7020    0.0000 H       1  LIG1        0.1051
@<TRIPOS>BOND
     1     1     2   ar
     2     2     3   ar
     3     3     4   ar
     4     4     5   ar
     5     5     6   ar
     6     6     7   ar
     7     7     8   ar
     8     1     8   ar
     9     4     8   ar
    10     1     9    1
    11     2    10    1
    12     3    11    1
    13     5    12    1
    14     7    13    1
