@<TRIPOS>MOLECULE
c1snc2ccnnc12
 12 13 0 0 0
SMALL
GASTEIGER
Energy = 0

@<TRIPOS>ATOM
      1 S           1.2296   -0.0085    0.0000 S.2     1  LIG1        0.0061
      2 C           0.7447    0.6590    0.0000 C.ar    1  LIG1        0.0235
      3 C          -0.0399    0.4040    0.0000 C.ar    1  LIG1        0.1200
      4 N          -0.7544    0.8165    0.0000 N.ar    1  LIG1       -0.1471
      5 N          -1.4689    0.4040    0.0000 N.ar    1  LIG1       -0.1570
      6 C          -1.4689   -0.4210    0.0000 C.ar    1  LIG1        0.0520
      7 C          -0.7544   -0.8335    0.0000 C.ar    1  LIG1       -0.0137
      8 C          -0.0399   -0.4210    0.0000 C.ar    1  LIG1        0.1015
      9 N           0.7447   -0.6759    0.0000 N.ar    1  LIG1       -0.2087
     10 H           1.0851    1.7066    0.0000 H       1  LIG1        0.0731
     11 H          -2.4228   -0.9718    0.0000 H       1  LIG1        0.0848
     12 H          -0.7544   -1.9350    0.0000 H       1  LIG1        0.0655
@<TRIPOS>BOND
     1     1     2   ar
     2     2     3   ar
     3     3     4   ar
     4     4     5   ar
     5     5     6   ar
     6     6     7   ar
     7     7     8   ar
     8     3     8   ar
     9     8     9   ar
    10     1     9   ar
    11     2    10    1
    12     6    11    1
    13     7    12    1
