@<TRIPOS>MOLECULE
c1snc2cnccc12
 13 14 0 0 0
SMALL
GASTEIGER
Energy = 0

@<TRIPOS>ATOM
      1 S           1.2182    0.0163    0.0000 S.2     1  LIG1        0.0045
      2 C           0.7333    0.6838    0.0000 C.ar    1  LIG1        0.0035
      3 C          -0.0513    0.4288    0.0000 C.ar    1  LIG1        0.0118
      4 C          -0.7658    0.8413    0.0000 C.ar    1  LIG1       -0.0338
      5 C          -1.4803    0.4288    0.0000 C.ar    1  LIG1        0.0283
      6 N          -1.4803   -0.3962    0.0000 N.ar    1  LIG1       -0.2611
      7 C          -0.7658   -0.8087    0.0000 C.ar    1  LIG1        0.0541
      8 C          -0.0513   -0.3962    0.0000 C.ar    1  LIG1        0.0981
      9 N           0.7333   -0.6511    0.0000 N.ar    1  LIG1       -0.2089
     10 H           1.0737    1.7314    0.0000 H       1  LIG1        0.0715
     11 H          -0.7658    1.9428    0.0000 H       1  LIG1        0.0639
     12 H          -2.4342    0.9796    0.0000 H       1  LIG1        0.0830
     13 H          -0.7658   -1.9102    0.0000 H       1  LIG1        0.0851
@<TRIPOS>BOND
     1     1     2   ar
     2     2     3   ar
     3     3     4   ar
     4     4     5   ar
     5     5     6   ar
     6     6     7   ar
     7     7     8   ar
     8     3     8   ar
     9     8     9   ar
    10     1     9   ar
    11     2    10    1
    12     4    11    1
    13     5    12    1
    14     7    13    1
