@<TRIPOS>MOLECULE
Cn1ccc2[nH]c(=O)ccc12
 19 20 0 0 0
SMALL
GASTEIGER
Energy = 0

@<TRIPOS>ATOM
      1 C           1.3184   -1.4240    0.0000 C.3     1  LIG1        0.0119
      2 N           1.0634   -0.6394    0.0000 N.ar    1  LIG1       -0.3485
      3 C           1.5483    0.0280    0.0000 C.ar    1  LIG1        0.0068
      4 C           1.0634    0.6955    0.0000 C.ar    1  LIG1       -0.0201
      5 C           0.2788    0.4405    0.0000 C.ar    1  LIG1        0.0671
      6 C           0.2788   -0.3845    0.0000 C.ar    1  LIG1        0.0655
      7 C          -0.4357   -0.7970    0.0000 C.ar    1  LIG1       -0.0311
      8 C          -1.1501   -0.3845    0.0000 C.ar    1  LIG1        0.0048
      9 C          -1.1501    0.4405    0.0000 C.ar    1  LIG1        0.2493
     10 O          -1.8646    0.8530    0.0000 O.2     1  LIG1       -0.2679
     11 N          -0.4357    0.8530    0.0000 N.ar    1  LIG1       -0.3209
     12 H           2.4580   -1.4538    0.0000 H       1  LIG1        0.0456
     13 H           0.9093   -1.9720   -0.9121 H       1  LIG1        0.0456
     14 H           0.9299   -1.9443    0.9370 H       1  LIG1        0.0456
     15 H           2.6498    0.0280    0.0000 H       1  LIG1        0.0809
     16 H           1.4038    1.7431    0.0000 H       1  LIG1        0.0653
     17 H          -0.4357   -1.8985    0.0000 H       1  LIG1        0.0640
     18 H          -2.1040   -0.9352    0.0000 H       1  LIG1        0.0672
     19 H          -0.4357    1.9355    0.0000 H       1  LIG1        0.1690
@<TRIPOS>BOND
     1     1     2    1
     2     2     3   ar
     3     3     4   ar
     4     4     5   ar
     5     5     6   ar
     6     2     6   ar
     7     6     7   ar
     8     7     8   ar
     9     8     9   ar
    10     9    10    2
    11     9    11   ar
    12     5    11   ar
    13     1    12    1
    14     1    13    1
    15     1    14    1
    16     3    15    1
    17     4    16    1
    18     7    17    1
    19     8    18    1
    20    11    19    1
