@<TRIPOS>MOLECULE
Cn1c(=O)cc2sccn2c1=O
 18 19 0 0 0
SMALL
GASTEIGER
Energy = 0

@<TRIPOS>ATOM
      1 C           1.7121   -0.7605    0.0000 C.3     1  LIG1        0.0196
      2 N           0.9976   -0.3480    0.0000 N.ar    1  LIG1       -0.2637
      3 C           0.9976    0.4770    0.0000 C.ar    1  LIG1        0.2574
      4 O           1.7121    0.8895    0.0000 O.2     1  LIG1       -0.2675
      5 C           0.2832    0.8895    0.0000 C.ar    1  LIG1        0.0339
      6 C          -0.4313    0.4770    0.0000 C.ar    1  LIG1        0.0937
      7 S          -1.2159    0.7320    0.0000 S.2     1  LIG1       -0.0774
      8 C          -1.7009    0.0645    0.0000 C.ar    1  LIG1       -0.0057
      9 C          -1.2159   -0.6029    0.0000 C.ar    1  LIG1        0.0217
     10 N          -0.4313   -0.3480    0.0000 N.ar    1  LIG1       -0.2626
     11 C           0.2832   -0.7605    0.0000 C.ar    1  LIG1        0.3366
     12 O           0.2832   -1.5855    0.0000 O.2     1  LIG1       -0.2459
     13 H           2.5789   -0.0201    0.0000 H       1  LIG1        0.0458
     14 H           1.7747   -1.4415   -0.9121 H       1  LIG1        0.0458
     15 H           1.7715   -1.4071    0.9370 H       1  LIG1        0.0458
     16 H           0.2832    1.9910    0.0000 H       1  LIG1        0.0698
     17 H          -2.8024    0.0645    0.0000 H       1  LIG1        0.0709
     18 H          -1.5562   -1.6505    0.0000 H       1  LIG1        0.0820
@<TRIPOS>BOND
     1     1     2    1
     2     2     3   ar
     3     3     4    2
     4     3     5   ar
     5     5     6   ar
     6     6     7   ar
     7     7     8   ar
     8     8     9   ar
     9     9    10   ar
    10     6    10   ar
    11    10    11   ar
    12     2    11   ar
    13    11    12    2
    14     1    13    1
    15     1    14    1
    16     1    15    1
    17     5    16    1
    18     8    17    1
    19     9    18    1
