@<TRIPOS>MOLECULE
Cn1cccc2cncc12
 18 19 0 0 0
SMALL
GASTEIGER
Energy = 0

@<TRIPOS>ATOM
      1 C           0.5141   -1.4770    0.0000 C.3     1  LIG1        0.0119
      2 N           0.5141   -0.6520    0.0000 N.ar    1  LIG1       -0.3485
      3 C           1.2286   -0.2395    0.0000 C.ar    1  LIG1        0.0048
      4 C           1.2286    0.5855    0.0000 C.ar    1  LIG1       -0.0449
      5 C           0.5141    0.9980    0.0000 C.ar    1  LIG1       -0.0498
      6 C          -0.2004    0.5855    0.0000 C.ar    1  LIG1        0.0180
      7 C          -0.9850    0.8404    0.0000 C.ar    1  LIG1        0.0368
      8 N          -1.4699    0.1730    0.0000 N.ar    1  LIG1       -0.2605
      9 C          -0.9850   -0.4945    0.0000 C.ar    1  LIG1        0.0517
     10 C          -0.2004   -0.2395    0.0000 C.ar    1  LIG1        0.0685
     11 H           1.5887   -1.8575    0.0000 H       1  LIG1        0.0456
     12 H          -0.0444   -1.8717   -0.9121 H       1  LIG1        0.0456
     13 H          -0.0161   -1.8517    0.9370 H       1  LIG1        0.0456
     14 H           2.1825   -0.7903    0.0000 H       1  LIG1        0.0809
     15 H           2.1825    1.1363    0.0000 H       1  LIG1        0.0632
     16 H           0.5141    2.0995    0.0000 H       1  LIG1        0.0625
     17 H          -1.3254    1.8880    0.0000 H       1  LIG1        0.0836
     18 H          -1.3254   -1.5421    0.0000 H       1  LIG1        0.0851
@<TRIPOS>BOND
     1     1     2    1
     2     2     3   ar
     3     3     4   ar
     4     4     5   ar
     5     5     6   ar
     6     6     7   ar
     7     7     8   ar
     8     8     9   ar
     9     9    10   ar
    10     2    10   ar
    11     6    10   ar
    12     1    11    1
    13     1    12    1
    14     1    13    1
    15     3    14    1
    16     4    15    1
    17     5    16    1
    18     7    17    1
    19     9    18    1
