@<TRIPOS>MOLECULE
Cn1ncn2cnc(=O)nc12
 16 17 0 0 0
SMALL
GASTEIGER
Energy = 0

@<TRIPOS>ATOM
      1 C           1.3091   -1.2332    0.0000 C.3     1  LIG1        0.0339
      2 N           1.0542   -0.4486    0.0000 N.ar    1  LIG1       -0.2337
      3 N           1.5391    0.2189    0.0000 N.ar    1  LIG1       -0.1584
      4 C           1.0542    0.8863    0.0000 C.ar    1  LIG1        0.1244
      5 N           0.2695    0.6314    0.0000 N.ar    1  LIG1       -0.2576
      6 C          -0.4449    1.0439    0.0000 C.ar    1  LIG1        0.1094
      7 N          -1.1594    0.6314    0.0000 N.ar    1  LIG1       -0.1813
      8 C          -1.1594   -0.1936    0.0000 C.ar    1  LIG1        0.3721
      9 O          -1.8739   -0.6061    0.0000 O.2     1  LIG1       -0.2425
     10 N          -0.4449   -0.6061    0.0000 N.ar    1  LIG1       -0.1552
     11 C           0.2695   -0.1936    0.0000 C.ar    1  LIG1        0.2382
     12 H           2.4487   -1.2631    0.0000 H       1  LIG1        0.0474
     13 H           0.8999   -1.7811   -0.9121 H       1  LIG1        0.0474
     14 H           0.9206   -1.7534    0.9370 H       1  LIG1        0.0474
     15 H           1.3946    1.9339    0.0000 H       1  LIG1        0.1052
     16 H          -0.4449    2.1454    0.0000 H       1  LIG1        0.1035
@<TRIPOS>BOND
     1     1     2    1
     2     2     3   ar
     3     3     4   ar
     4     4     5   ar
     5     5     6   ar
     6     6     7   ar
     7     7     8   ar
     8     8     9    2
     9     8    10   ar
    10    10    11   ar
    11     2    11   ar
    12     5    11   ar
    13     1    12    1
    14     1    13    1
    15     1    14    1
    16     4    15    1
    17     6    16    1
