@<TRIPOS>MOLECULE
Cn1ncc(=O)n2ccnc12
 17 18 0 0 0
SMALL
GASTEIGER
Energy = 0

@<TRIPOS>ATOM
      1 C           0.4361   -1.6750    0.0000 C.3     1  LIG1        0.0338
      2 N           0.4361   -0.8500    0.0000 N.ar    1  LIG1       -0.2351
      3 N           1.1505   -0.4375    0.0000 N.ar    1  LIG1       -0.1716
      4 C           1.1505    0.3875    0.0000 C.ar    1  LIG1        0.1128
      5 C           0.4361    0.8000    0.0000 C.ar    1  LIG1        0.2778
      6 O           0.4361    1.6250    0.0000 O.2     1  LIG1       -0.2655
      7 N          -0.2784    0.3875    0.0000 N.ar    1  LIG1       -0.2499
      8 C          -1.0630    0.6424    0.0000 C.ar    1  LIG1        0.0343
      9 C          -1.5480   -0.0250    0.0000 C.ar    1  LIG1        0.0480
     10 N          -1.0630   -0.6924    0.0000 N.ar    1  LIG1       -0.2190
     11 C          -0.2784   -0.4375    0.0000 C.ar    1  LIG1        0.2342
     12 H           1.5107   -2.0555    0.0000 H       1  LIG1        0.0474
     13 H          -0.1224   -2.0697   -0.9121 H       1  LIG1        0.0474
     14 H          -0.0941   -2.0497    0.9370 H       1  LIG1        0.0474
     15 H           2.1044    0.9382    0.0000 H       1  LIG1        0.0903
     16 H          -1.4033    1.6900    0.0000 H       1  LIG1        0.0830
     17 H          -2.6495   -0.0250    0.0000 H       1  LIG1        0.0846
@<TRIPOS>BOND
     1     1     2    1
     2     2     3   ar
     3     3     4   ar
     4     4     5   ar
     5     5     6    2
     6     5     7   ar
     7     7     8   ar
     8     8     9   ar
     9     9    10   ar
    10    10    11   ar
    11     2    11   ar
    12     7    11   ar
    13     1    12    1
    14     1    13    1
    15     1    14    1
    16     4    15    1
    17     8    16    1
    18     9    17    1
