@<TRIPOS>MOLECULE
Cn1cnc(=O)c2nc[nH]c12
 17 18 0 0 0
SMALL
GASTEIGER
Energy = 0

@<TRIPOS>ATOM
      1 C          -0.4469   -1.6900    0.0000 C.3     1  LIG1        0.0146
      2 N          -0.4469   -0.8650    0.0000 N.ar    1  LIG1       -0.3194
      3 C          -1.1614   -0.4525    0.0000 C.ar    1  LIG1        0.1012
      4 N          -1.1614    0.3725    0.0000 N.ar    1  LIG1       -0.1975
      5 C          -0.4469    0.7850    0.0000 C.ar    1  LIG1        0.3006
      6 O          -0.4469    1.6100    0.0000 O.2     1  LIG1       -0.2634
      7 C           0.2675    0.3725    0.0000 C.ar    1  LIG1        0.1719
      8 C           0.2675   -0.4525    0.0000 C.ar    1  LIG1        0.1446
      9 N           1.0522   -0.7074    0.0000 N.ar    1  LIG1       -0.3304
     10 C           1.5371   -0.0400    0.0000 C.ar    1  LIG1        0.0957
     11 N           1.0522    0.6275    0.0000 N.ar    1  LIG1       -0.2288
     12 H          -1.5215   -2.0705    0.0000 H       1  LIG1        0.0457
     13 H           0.1116   -2.0847    0.9121 H       1  LIG1        0.0457
     14 H           0.0833   -2.0647   -0.9370 H       1  LIG1        0.0457
     15 H          -2.1153   -1.0033    0.0000 H       1  LIG1        0.1030
     16 H           1.3867   -1.7369    0.0000 H       1  LIG1        0.1682
     17 H           2.6386   -0.0400    0.0000 H       1  LIG1        0.1027
@<TRIPOS>BOND
     1     1     2    1
     2     2     3   ar
     3     3     4   ar
     4     4     5   ar
     5     5     6    2
     6     5     7   ar
     7     7     8   ar
     8     2     8   ar
     9     8     9   ar
    10     9    10   ar
    11    10    11   ar
    12     7    11   ar
    13     1    12    1
    14     1    13    1
    15     1    14    1
    16     3    15    1
    17     9    16    1
    18    10    17    1
