@<TRIPOS>MOLECULE
c1cc2cnccc2o1
 14 15 0 0 0
SMALL
GASTEIGER
Energy = 0

@<TRIPOS>ATOM
      1 O           0.9346   -0.6513    0.0000 O.2     1  LIG1       -0.4628
      2 C           1.4196    0.0161    0.0000 C.ar    1  LIG1        0.0932
      3 C           0.9346    0.6836    0.0000 C.ar    1  LIG1       -0.0147
      4 C           0.1500    0.4286    0.0000 C.ar    1  LIG1        0.0382
      5 C          -0.5644    0.8411    0.0000 C.ar    1  LIG1        0.0383
      6 N          -1.2789    0.4286    0.0000 N.ar    1  LIG1       -0.2624
      7 C          -1.2789   -0.3964    0.0000 C.ar    1  LIG1        0.0311
      8 C          -0.5644   -0.8089    0.0000 C.ar    1  LIG1       -0.0006
      9 C           0.1500   -0.3964    0.0000 C.ar    1  LIG1        0.1377
     10 H           2.5211    0.0161    0.0000 H       1  LIG1        0.1030
     11 H           1.2749    1.7312    0.0000 H       1  LIG1        0.0655
     12 H          -0.5644    1.9426    0.0000 H       1  LIG1        0.0837
     13 H          -2.2328   -0.9472    0.0000 H       1  LIG1        0.0831
     14 H          -0.5644   -1.9104    0.0000 H       1  LIG1        0.0670
@<TRIPOS>BOND
     1     1     2   ar
     2     2     3   ar
     3     3     4   ar
     4     4     5   ar
     5     5     6   ar
     6     6     7   ar
     7     7     8   ar
     8     8     9   ar
     9     1     9   ar
    10     4     9   ar
    11     2    10    1
    12     3    11    1
    13     5    12    1
    14     7    13    1
    15     8    14    1
