@<TRIPOS>MOLECULE
c1nc2ccccn2n1
 14 15 0 0 0
SMALL
GASTEIGER
Energy = 0

@<TRIPOS>ATOM
      1 C           1.3039    0.4053    0.0000 C.ar    1  LIG1       -0.0434
      2 C           0.5895    0.8178    0.0000 C.ar    1  LIG1        0.0315
      3 N          -0.1250    0.4053    0.0000 N.ar    1  LIG1       -0.2204
      4 N          -0.9096    0.6602    0.0000 N.ar    1  LIG1       -0.1536
      5 C          -1.3945   -0.0072    0.0000 C.ar    1  LIG1        0.1390
      6 N          -0.9096   -0.6747    0.0000 N.ar    1  LIG1       -0.2149
      7 C          -0.1250   -0.4197    0.0000 C.ar    1  LIG1        0.1557
      8 C           0.5895   -0.8322    0.0000 C.ar    1  LIG1       -0.0174
      9 C           1.3039   -0.4197    0.0000 C.ar    1  LIG1       -0.0568
     10 H           2.2578    0.9560    0.0000 H       1  LIG1        0.0633
     11 H           0.5895    1.9193    0.0000 H       1  LIG1        0.0831
     12 H          -2.4960   -0.0072    0.0000 H       1  LIG1        0.1066
     13 H           0.5895   -1.9337    0.0000 H       1  LIG1        0.0655
     14 H           2.2578   -0.9704    0.0000 H       1  LIG1        0.0619
@<TRIPOS>BOND
     1     1     2   ar
     2     2     3   ar
     3     3     4   ar
     4     4     5   ar
     5     5     6   ar
     6     6     7   ar
     7     3     7   ar
     8     7     8   ar
     9     8     9   ar
    10     1     9   ar
    11     1    10    1
    12     2    11    1
    13     5    12    1
    14     8    13    1
    15     9    14    1
