@<TRIPOS>MOLECULE
O=c1[nH]ncc2cnncc12
 15 16 0 0 0
SMALL
GASTEIGER
Energy = 0

@<TRIPOS>ATOM
      1 O           0.6351   -1.4668    0.0000 O.2     1  LIG1       -0.2657
      2 C           0.6351   -0.6418    0.0000 C.ar    1  LIG1        0.2740
      3 N           1.3496   -0.2293    0.0000 N.ar    1  LIG1       -0.2427
      4 N           1.3496    0.5957    0.0000 N.ar    1  LIG1       -0.1787
      5 C           0.6351    1.0082    0.0000 C.ar    1  LIG1        0.0572
      6 C          -0.0793    0.5957    0.0000 C.ar    1  LIG1        0.0284
      7 C          -0.7938    1.0082    0.0000 C.ar    1  LIG1        0.0593
      8 N          -1.5083    0.5957    0.0000 N.ar    1  LIG1       -0.1570
      9 N          -1.5083   -0.2293    0.0000 N.ar    1  LIG1       -0.1569
     10 C          -0.7938   -0.6418    0.0000 C.ar    1  LIG1        0.0629
     11 C          -0.0793   -0.2293    0.0000 C.ar    1  LIG1        0.0706
     12 H           2.2871   -0.7706    0.0000 H       1  LIG1        0.1921
     13 H           0.6351    2.1097    0.0000 H       1  LIG1        0.0854
     14 H          -0.7938    2.1097    0.0000 H       1  LIG1        0.0855
     15 H          -0.7938   -1.7433    0.0000 H       1  LIG1        0.0856
@<TRIPOS>BOND
     1     1     2    2
     2     2     3   ar
     3     3     4   ar
     4     4     5   ar
     5     5     6   ar
     6     6     7   ar
     7     7     8   ar
     8     8     9   ar
     9     9    10   ar
    10    10    11   ar
    11     2    11   ar
    12     6    11   ar
    13     3    12    1
    14     5    13    1
    15     7    14    1
    16    10    15    1
