@<TRIPOS>MOLECULE
Cn1cc2ccncc2n1
 17 18 0 0 0
SMALL
GASTEIGER
Energy = 0

@<TRIPOS>ATOM
      1 C           2.0231    0.0171    0.0000 C.3     1  LIG1        0.0302
      2 N           1.1981    0.0171    0.0000 N.ar    1  LIG1       -0.2733
      3 C           0.7131    0.6845    0.0000 C.ar    1  LIG1        0.0330
      4 C          -0.0715    0.4296    0.0000 C.ar    1  LIG1        0.0226
      5 C          -0.7859    0.8421    0.0000 C.ar    1  LIG1       -0.0329
      6 C          -1.5004    0.4296    0.0000 C.ar    1  LIG1        0.0283
      7 N          -1.5004   -0.3954    0.0000 N.ar    1  LIG1       -0.2611
      8 C          -0.7859   -0.8079    0.0000 C.ar    1  LIG1        0.0552
      9 C          -0.0715   -0.3954    0.0000 C.ar    1  LIG1        0.1107
     10 N           0.7131   -0.6503    0.0000 N.ar    1  LIG1       -0.1699
     11 H           2.4036    1.0917    0.0000 H       1  LIG1        0.0473
     12 H           2.4178   -0.5414   -0.9121 H       1  LIG1        0.0473
     13 H           2.3978   -0.5131    0.9370 H       1  LIG1        0.0473
     14 H           1.0534    1.7321    0.0000 H       1  LIG1        0.0832
     15 H          -0.7859    1.9436    0.0000 H       1  LIG1        0.0640
     16 H          -2.4543    0.9804    0.0000 H       1  LIG1        0.0830
     17 H          -0.7859   -1.9094    0.0000 H       1  LIG1        0.0852
@<TRIPOS>BOND
     1     1     2    1
     2     2     3   ar
     3     3     4   ar
     4     4     5   ar
     5     5     6   ar
     6     6     7   ar
     7     7     8   ar
     8     8     9   ar
     9     4     9   ar
    10     9    10   ar
    11     2    10   ar
    12     1    11    1
    13     1    12    1
    14     1    13    1
    15     3    14    1
    16     5    15    1
    17     6    16    1
    18     8    17    1
