@<TRIPOS>MOLECULE
Cn1cc2[nH]cnc2cc1=O
 18 19 0 0 0
SMALL
GASTEIGER
Energy = 0

@<TRIPOS>ATOM
      1 C           1.6005    0.8424    0.0000 C.3     1  LIG1        0.0148
      2 N           0.8860    0.4299    0.0000 N.ar    1  LIG1       -0.3162
      3 C           0.1715    0.8424    0.0000 C.ar    1  LIG1        0.0330
      4 C          -0.5429    0.4299    0.0000 C.ar    1  LIG1        0.0826
      5 N          -1.3276    0.6848    0.0000 N.ar    1  LIG1       -0.3433
      6 C          -1.8125    0.0174    0.0000 C.ar    1  LIG1        0.0945
      7 N          -1.3276   -0.6501    0.0000 N.ar    1  LIG1       -0.2357
      8 C          -0.5429   -0.3951    0.0000 C.ar    1  LIG1        0.0953
      9 C           0.1715   -0.8076    0.0000 C.ar    1  LIG1        0.0304
     10 C           0.8860   -0.3951    0.0000 C.ar    1  LIG1        0.2532
     11 O           1.6005   -0.8076    0.0000 O.2     1  LIG1       -0.2676
     12 H           1.3928    1.9633    0.0000 H       1  LIG1        0.0457
     13 H           2.2215    0.5561   -0.9121 H       1  LIG1        0.0457
     14 H           2.1902    0.5706    0.9370 H       1  LIG1        0.0457
     15 H           0.1715    1.9439    0.0000 H       1  LIG1        0.0831
     16 H          -1.6621    1.7143    0.0000 H       1  LIG1        0.1668
     17 H          -2.9140    0.0174    0.0000 H       1  LIG1        0.1027
     18 H           0.1715   -1.9091    0.0000 H       1  LIG1        0.0694
@<TRIPOS>BOND
     1     1     2    1
     2     2     3   ar
     3     3     4   ar
     4     4     5   ar
     5     5     6   ar
     6     6     7   ar
     7     7     8   ar
     8     4     8   ar
     9     8     9   ar
    10     9    10   ar
    11     2    10   ar
    12    10    11    2
    13     1    12    1
    14     1    13    1
    15     1    14    1
    16     3    15    1
    17     5    16    1
    18     6    17    1
    19     9    18    1
