@<TRIPOS>MOLECULE
Cn1ccn2ncnc12
 15 16 0 0 0
SMALL
GASTEIGER
Energy = 0

@<TRIPOS>ATOM
      1 C           0.9455   -1.2974    0.0000 C.3     1  LIG1        0.0147
      2 N           0.6906   -0.5128    0.0000 N.ar    1  LIG1       -0.3183
      3 C           1.1755    0.1546    0.0000 C.ar    1  LIG1        0.0258
      4 C           0.6906    0.8221    0.0000 C.ar    1  LIG1        0.0490
      5 N          -0.0941    0.5671    0.0000 N.ar    1  LIG1       -0.2042
      6 N          -0.8787    0.8221    0.0000 N.ar    1  LIG1       -0.1523
      7 C          -1.3636    0.1546    0.0000 C.ar    1  LIG1        0.1405
      8 N          -0.8787   -0.5128    0.0000 N.ar    1  LIG1       -0.1989
      9 C          -0.0941   -0.2579    0.0000 C.ar    1  LIG1        0.2330
     10 H           2.0851   -1.3273    0.0000 H       1  LIG1        0.0457
     11 H           0.5363   -1.8453   -0.9121 H       1  LIG1        0.0457
     12 H           0.5570   -1.8176    0.9370 H       1  LIG1        0.0457
     13 H           2.2770    0.1546    0.0000 H       1  LIG1        0.0825
     14 H           1.0310    1.8697    0.0000 H       1  LIG1        0.0846
     15 H          -2.4651    0.1546    0.0000 H       1  LIG1        0.1066
@<TRIPOS>BOND
     1     1     2    1
     2     2     3   ar
     3     3     4   ar
     4     4     5   ar
     5     5     6   ar
     6     6     7   ar
     7     7     8   ar
     8     8     9   ar
     9     2     9   ar
    10     5     9   ar
    11     1    10    1
    12     1    11    1
    13     1    12    1
    14     3    13    1
    15     4    14    1
    16     7    15    1
