@<TRIPOS>MOLECULE
O=c1onc2cccnn12
 13 14 0 0 0
SMALL
GASTEIGER
Energy = 0

@<TRIPOS>ATOM
      1 O           1.0064   -1.2703    0.0000 O.2     1  LIG1       -0.2187
      2 C           0.7515   -0.4857    0.0000 C.ar    1  LIG1        0.4636
      3 O           1.2364    0.1818    0.0000 O.2     1  LIG1       -0.2938
      4 N           0.7515    0.8492    0.0000 N.ar    1  LIG1       -0.0527
      5 C          -0.0331    0.5943    0.0000 C.ar    1  LIG1        0.1999
      6 C          -0.7476    1.0068    0.0000 C.ar    1  LIG1       -0.0125
      7 C          -1.4621    0.5943    0.0000 C.ar    1  LIG1       -0.0383
      8 C          -1.4621   -0.2307    0.0000 C.ar    1  LIG1        0.0487
      9 N          -0.7476   -0.6432    0.0000 N.ar    1  LIG1       -0.1677
     10 N          -0.0331   -0.2307    0.0000 N.ar    1  LIG1       -0.1422
     11 H          -0.7476    2.1083    0.0000 H       1  LIG1        0.0656
     12 H          -2.4160    1.1451    0.0000 H       1  LIG1        0.0634
     13 H          -2.4160   -0.7815    0.0000 H       1  LIG1        0.0847
@<TRIPOS>BOND
     1     1     2    2
     2     2     3   ar
     3     3     4   ar
     4     4     5   ar
     5     5     6   ar
     6     6     7   ar
     7     7     8   ar
     8     8     9   ar
     9     9    10   ar
    10     2    10   ar
    11     5    10   ar
    12     6    11    1
    13     7    12    1
    14     8    13    1
