@<TRIPOS>MOLECULE
O=c1ccc2ccc(=O)[nH]c2[nH]1
 18 19 0 0 0
SMALL
GASTEIGER
Energy = 0

@<TRIPOS>ATOM
      1 O           2.1434    0.6348    0.0000 O.2     1  LIG1       -0.2679
      2 C           1.4289    0.2223    0.0000 C.ar    1  LIG1        0.2502
      3 N           0.7145    0.6348    0.0000 N.ar    1  LIG1       -0.3084
      4 C          -0.0000    0.2223    0.0000 C.ar    1  LIG1        0.1212
      5 C          -0.0000   -0.6027    0.0000 C.ar    1  LIG1        0.0159
      6 C           0.7145   -1.0152    0.0000 C.ar    1  LIG1       -0.0461
      7 C           1.4289   -0.6027    0.0000 C.ar    1  LIG1        0.0035
      8 C          -0.7145   -1.0152    0.0000 C.ar    1  LIG1       -0.0461
      9 C          -1.4289   -0.6027    0.0000 C.ar    1  LIG1        0.0035
     10 C          -1.4289    0.2223    0.0000 C.ar    1  LIG1        0.2502
     11 O          -2.1434    0.6348    0.0000 O.2     1  LIG1       -0.2679
     12 N          -0.7145    0.6348    0.0000 N.ar    1  LIG1       -0.3084
     13 H           0.7145    1.7173    0.0000 H       1  LIG1        0.1703
     14 H           0.7145   -2.1167    0.0000 H       1  LIG1        0.0626
     15 H           2.3828   -1.1534    0.0000 H       1  LIG1        0.0672
     16 H          -0.7145   -2.1167    0.0000 H       1  LIG1        0.0626
     17 H          -2.3828   -1.1534    0.0000 H       1  LIG1        0.0672
     18 H          -0.7145    1.7173    0.0000 H       1  LIG1        0.1703
@<TRIPOS>BOND
     1     1     2    2
     2     2     3   ar
     3     3     4   ar
     4     4     5   ar
     5     5     6   ar
     6     6     7   ar
     7     2     7   ar
     8     5     8   ar
     9     8     9   ar
    10     9    10   ar
    11    10    11    2
    12    10    12   ar
    13     4    12   ar
    14     3    13    1
    15     6    14    1
    16     7    15    1
    17     8    16    1
    18     9    17    1
    19    12    18    1
