@<TRIPOS>MOLECULE
O=c1cccc2ccncn12
 17 18 0 0 0
SMALL
GASTEIGER
Energy = 0

@<TRIPOS>ATOM
      1 O           0.6532   -1.4498    0.0000 O.2     1  LIG1       -0.2673
      2 C           0.6532   -0.6248    0.0000 C.ar    1  LIG1        0.2568
      3 C           1.3677   -0.2123    0.0000 C.ar    1  LIG1        0.0034
      4 C           1.3677    0.6127    0.0000 C.ar    1  LIG1       -0.0547
      5 C           0.6532    1.0252    0.0000 C.ar    1  LIG1       -0.0375
      6 C          -0.0612    0.6127    0.0000 C.ar    1  LIG1        0.0523
      7 C          -0.7757    1.0252    0.0000 C.ar    1  LIG1       -0.0196
      8 C          -1.4902    0.6127    0.0000 C.ar    1  LIG1        0.0312
      9 N          -1.4902   -0.2123    0.0000 N.ar    1  LIG1       -0.2450
     10 C          -0.7757   -0.6248    0.0000 C.ar    1  LIG1        0.1031
     11 N          -0.0612   -0.2123    0.0000 N.ar    1  LIG1       -0.2676
     12 H           2.3216   -0.7631    0.0000 H       1  LIG1        0.0672
     13 H           2.3216    1.1635    0.0000 H       1  LIG1        0.0620
     14 H           0.6532    2.1267    0.0000 H       1  LIG1        0.0638
     15 H          -0.7757    2.1267    0.0000 H       1  LIG1        0.0653
     16 H          -2.4441    1.1635    0.0000 H       1  LIG1        0.0831
     17 H          -0.7757   -1.7263    0.0000 H       1  LIG1        0.1033
@<TRIPOS>BOND
     1     1     2    2
     2     2     3   ar
     3     3     4   ar
     4     4     5   ar
     5     5     6   ar
     6     6     7   ar
     7     7     8   ar
     8     8     9   ar
     9     9    10   ar
    10    10    11   ar
    11     2    11   ar
    12     6    11   ar
    13     3    12    1
    14     4    13    1
    15     5    14    1
    16     7    15    1
    17     8    16    1
    18    10    17    1
