@<TRIPOS>MOLECULE
c1cc2[nH]nnc2cn1
 13 14 0 0 0
SMALL
GASTEIGER
Energy = 0

@<TRIPOS>ATOM
      1 N           0.9102   -0.6745    0.0000 N.ar    1  LIG1       -0.2570
      2 N           1.3951   -0.0071    0.0000 N.ar    1  LIG1       -0.0673
      3 N           0.9102    0.6603    0.0000 N.ar    1  LIG1       -0.1281
      4 C           0.1256    0.4054    0.0000 C.ar    1  LIG1        0.1304
      5 C           0.1256   -0.4196    0.0000 C.ar    1  LIG1        0.0887
      6 C          -0.5889   -0.8321    0.0000 C.ar    1  LIG1       -0.0166
      7 C          -1.3034   -0.4196    0.0000 C.ar    1  LIG1        0.0297
      8 N          -1.3034    0.4054    0.0000 N.ar    1  LIG1       -0.2610
      9 C          -0.5889    0.8179    0.0000 C.ar    1  LIG1        0.0568
     10 H           1.2447   -1.7040    0.0000 H       1  LIG1        0.1907
     11 H          -0.5889   -1.9336    0.0000 H       1  LIG1        0.0654
     12 H          -2.2573   -0.9704    0.0000 H       1  LIG1        0.0830
     13 H          -0.5889    1.9194    0.0000 H       1  LIG1        0.0852
@<TRIPOS>BOND
     1     1     2   ar
     2     2     3   ar
     3     3     4   ar
     4     4     5   ar
     5     1     5   ar
     6     5     6   ar
     7     6     7   ar
     8     7     8   ar
     9     8     9   ar
    10     4     9   ar
    11     1    10    1
    12     6    11    1
    13     7    12    1
    14     9    13    1
