@<TRIPOS>MOLECULE
O=c1cc[nH][nH]1
 10 10 0 0 0
SMALL
GASTEIGER
Energy = 0

@<TRIPOS>ATOM
      1 O          -1.2304    0.0269    0.0000 O.2     1  LIG1       -0.2665
      2 C          -0.4054    0.0269    0.0000 C.ar    1  LIG1        0.2644
      3 N           0.0796   -0.6405    0.0000 N.ar    1  LIG1       -0.2662
      4 N           0.8642   -0.3856    0.0000 N.ar    1  LIG1       -0.3043
      5 C           0.8642    0.4394    0.0000 C.ar    1  LIG1        0.0240
      6 C           0.0796    0.6944    0.0000 C.ar    1  LIG1        0.0215
      7 H          -0.2549   -1.6700    0.0000 H       1  LIG1        0.1899
      8 H           1.7399   -1.0219    0.0000 H       1  LIG1        0.1861
      9 H           1.7554    1.0868    0.0000 H       1  LIG1        0.0824
     10 H          -0.2607    1.7420    0.0000 H       1  LIG1        0.0687
@<TRIPOS>BOND
     1     1     2    2
     2     2     3   ar
     3     3     4   ar
     4     4     5   ar
     5     5     6   ar
     6     2     6   ar
     7     3     7    1
     8     4     8    1
     9     5     9    1
    10     6    10    1
