@<TRIPOS>MOLECULE
Cn1ccn2cnc(=O)c2c1
 18 19 0 0 0
SMALL
GASTEIGER
Energy = 0

@<TRIPOS>ATOM
      1 C           1.9547   -0.5918    0.0000 C.3     1  LIG1        0.0115
      2 N           1.2402   -0.1793    0.0000 N.ar    1  LIG1       -0.3528
      3 C           1.2402    0.6457    0.0000 C.ar    1  LIG1        0.0208
      4 C           0.5257    1.0582    0.0000 C.ar    1  LIG1        0.0275
      5 N          -0.1888    0.6457    0.0000 N.ar    1  LIG1       -0.2999
      6 C          -0.9734    0.9007    0.0000 C.ar    1  LIG1        0.1046
      7 N          -1.4583    0.2332    0.0000 N.ar    1  LIG1       -0.1973
      8 C          -0.9734   -0.4342    0.0000 C.ar    1  LIG1        0.2969
      9 O          -1.2283   -1.2188    0.0000 O.2     1  LIG1       -0.2635
     10 C          -0.1888   -0.1793    0.0000 C.ar    1  LIG1        0.1304
     11 C           0.5257   -0.5918    0.0000 C.ar    1  LIG1        0.0336
     12 H           2.8215    0.1486    0.0000 H       1  LIG1        0.0455
     13 H           2.0173   -1.2728   -0.9121 H       1  LIG1        0.0455
     14 H           2.0141   -1.2384    0.9370 H       1  LIG1        0.0455
     15 H           2.1941    1.1965    0.0000 H       1  LIG1        0.0824
     16 H           0.5257    2.1597    0.0000 H       1  LIG1        0.0828
     17 H          -1.3138    1.9483    0.0000 H       1  LIG1        0.1033
     18 H           0.5257   -1.6933    0.0000 H       1  LIG1        0.0832
@<TRIPOS>BOND
     1     1     2    1
     2     2     3   ar
     3     3     4   ar
     4     4     5   ar
     5     5     6   ar
     6     6     7   ar
     7     7     8   ar
     8     8     9    2
     9     8    10   ar
    10     5    10   ar
    11    10    11   ar
    12     2    11   ar
    13     1    12    1
    14     1    13    1
    15     1    14    1
    16     3    15    1
    17     4    16    1
    18     6    17    1
    19    11    18    1
