@<TRIPOS>MOLECULE
O=c1cnc2ccccc2[nH]1
 17 18 0 0 0
SMALL
GASTEIGER
Energy = 0

@<TRIPOS>ATOM
      1 O           1.8783    0.7308    0.0000 O.2     1  LIG1       -0.2662
      2 C           1.1638    0.3183    0.0000 C.ar    1  LIG1        0.2674
      3 N           0.4493    0.7308    0.0000 N.ar    1  LIG1       -0.3196
      4 C          -0.2651    0.3183    0.0000 C.ar    1  LIG1        0.0676
      5 C          -0.9796    0.7308    0.0000 C.ar    1  LIG1       -0.0362
      6 C          -1.6941    0.3183    0.0000 C.ar    1  LIG1       -0.0597
      7 C          -1.6941   -0.5067    0.0000 C.ar    1  LIG1       -0.0596
      8 C          -0.9796   -0.9192    0.0000 C.ar    1  LIG1       -0.0343
      9 C          -0.2651   -0.5067    0.0000 C.ar    1  LIG1        0.0873
     10 N           0.4493   -0.9192    0.0000 N.ar    1  LIG1       -0.2481
     11 C           1.1638   -0.5067    0.0000 C.ar    1  LIG1        0.0925
     12 H           0.4493    1.8133    0.0000 H       1  LIG1        0.1690
     13 H          -0.9796    1.8323    0.0000 H       1  LIG1        0.0639
     14 H          -2.6480    0.8691    0.0000 H       1  LIG1        0.0618
     15 H          -2.6480   -1.0575    0.0000 H       1  LIG1        0.0618
     16 H          -0.9796   -2.0207    0.0000 H       1  LIG1        0.0639
     17 H           2.1177   -1.0575    0.0000 H       1  LIG1        0.0885
@<TRIPOS>BOND
     1     1     2    2
     2     2     3   ar
     3     3     4   ar
     4     4     5   ar
     5     5     6   ar
     6     6     7   ar
     7     7     8   ar
     8     8     9   ar
     9     4     9   ar
    10     9    10   ar
    11    10    11   ar
    12     2    11   ar
    13     3    12    1
    14     5    13    1
    15     6    14    1
    16     7    15    1
    17     8    16    1
    18    11    17    1
