@<TRIPOS>MOLECULE
O=c1ncc2cncn2[nH]1
 14 15 0 0 0
SMALL
GASTEIGER
Energy = 0

@<TRIPOS>ATOM
      1 O           1.7389    0.7126    0.0000 O.2     1  LIG1       -0.2432
      2 C           1.0244    0.3001    0.0000 C.ar    1  LIG1        0.3608
      3 N           0.3099    0.7126    0.0000 N.ar    1  LIG1       -0.2414
      4 N          -0.4045    0.3001    0.0000 N.ar    1  LIG1       -0.2373
      5 C          -1.1891    0.5550    0.0000 C.ar    1  LIG1        0.1162
      6 N          -1.6741   -0.1124    0.0000 N.ar    1  LIG1       -0.2416
      7 C          -1.1891   -0.7798    0.0000 C.ar    1  LIG1        0.0562
      8 C          -0.4045   -0.5249    0.0000 C.ar    1  LIG1        0.1013
      9 C           0.3099   -0.9374    0.0000 C.ar    1  LIG1        0.0599
     10 N           1.0244   -0.5249    0.0000 N.ar    1  LIG1       -0.1983
     11 H           0.3099    1.7951    0.0000 H       1  LIG1        0.1921
     12 H          -1.5294    1.6026    0.0000 H       1  LIG1        0.1047
     13 H          -1.5294   -1.8274    0.0000 H       1  LIG1        0.0852
     14 H           0.3099   -2.0389    0.0000 H       1  LIG1        0.0853
@<TRIPOS>BOND
     1     1     2    2
     2     2     3   ar
     3     3     4   ar
     4     4     5   ar
     5     5     6   ar
     6     6     7   ar
     7     7     8   ar
     8     4     8   ar
     9     8     9   ar
    10     9    10   ar
    11     2    10   ar
    12     3    11    1
    13     5    12    1
    14     7    13    1
    15     9    14    1
