@<TRIPOS>MOLECULE
Cn1ccc2nc(=O)[nH]nc12
 17 18 0 0 0
SMALL
GASTEIGER
Energy = 0

@<TRIPOS>ATOM
      1 C           1.3403   -1.4077    0.0000 C.3     1  LIG1        0.0133
      2 N           1.0854   -0.6230    0.0000 N.ar    1  LIG1       -0.3323
      3 C           1.5703    0.0444    0.0000 C.ar    1  LIG1        0.0083
      4 C           1.0854    0.7118    0.0000 C.ar    1  LIG1       -0.0163
      5 C           0.3008    0.4569    0.0000 C.ar    1  LIG1        0.1147
      6 N          -0.4137    0.8694    0.0000 N.ar    1  LIG1       -0.1888
      7 C          -1.1282    0.4569    0.0000 C.ar    1  LIG1        0.3626
      8 O          -1.8426    0.8694    0.0000 O.2     1  LIG1       -0.2432
      9 N          -1.1282   -0.3681    0.0000 N.ar    1  LIG1       -0.2248
     10 N          -0.4137   -0.7806    0.0000 N.ar    1  LIG1       -0.1497
     11 C           0.3008   -0.3681    0.0000 C.ar    1  LIG1        0.1792
     12 H           2.4799   -1.4376    0.0000 H       1  LIG1        0.0456
     13 H           0.9311   -1.9556   -0.9121 H       1  LIG1        0.0456
     14 H           0.9518   -1.9279    0.9370 H       1  LIG1        0.0456
     15 H           2.6718    0.0444    0.0000 H       1  LIG1        0.0810
     16 H           1.4258    1.7594    0.0000 H       1  LIG1        0.0654
     17 H          -2.0657   -0.9094    0.0000 H       1  LIG1        0.1937
@<TRIPOS>BOND
     1     1     2    1
     2     2     3   ar
     3     3     4   ar
     4     4     5   ar
     5     5     6   ar
     6     6     7   ar
     7     7     8    2
     8     7     9   ar
     9     9    10   ar
    10    10    11   ar
    11     2    11   ar
    12     5    11   ar
    13     1    12    1
    14     1    13    1
    15     1    14    1
    16     3    15    1
    17     4    16    1
    18     9    17    1
