@<TRIPOS>MOLECULE
c1cc2ccccn2n1
 15 16 0 0 0
SMALL
GASTEIGER
Energy = 0

@<TRIPOS>ATOM
      1 C           1.2878    0.3933    0.0000 C.ar    1  LIG1       -0.0435
      2 C           0.5733    0.8058    0.0000 C.ar    1  LIG1        0.0297
      3 N          -0.1412    0.3933    0.0000 N.ar    1  LIG1       -0.2399
      4 N          -0.9258    0.6482    0.0000 N.ar    1  LIG1       -0.1748
      5 C          -1.4107   -0.0192    0.0000 C.ar    1  LIG1        0.0504
      6 C          -0.9258   -0.6867    0.0000 C.ar    1  LIG1       -0.0165
      7 C          -0.1412   -0.4317    0.0000 C.ar    1  LIG1        0.0668
      8 C           0.5733   -0.8442    0.0000 C.ar    1  LIG1       -0.0362
      9 C           1.2878   -0.4317    0.0000 C.ar    1  LIG1       -0.0583
     10 H           2.2417    0.9441    0.0000 H       1  LIG1        0.0633
     11 H           0.5733    1.9073    0.0000 H       1  LIG1        0.0830
     12 H          -2.5122   -0.0192    0.0000 H       1  LIG1        0.0848
     13 H          -1.2662   -1.7343    0.0000 H       1  LIG1        0.0654
     14 H           0.5733   -1.9457    0.0000 H       1  LIG1        0.0639
     15 H           2.2417   -0.9825    0.0000 H       1  LIG1        0.0619
@<TRIPOS>BOND
     1     1     2   ar
     2     2     3   ar
     3     3     4   ar
     4     4     5   ar
     5     5     6   ar
     6     6     7   ar
     7     3     7   ar
     8     7     8   ar
     9     8     9   ar
    10     1     9   ar
    11     1    10    1
    12     2    11    1
    13     5    12    1
    14     6    13    1
    15     8    14    1
    16     9    15    1
