@<TRIPOS>MOLECULE
c1ccnnc1
 10 10 0 0 0
SMALL
GASTEIGER
Energy = 0

@<TRIPOS>ATOM
      1 C           0.0188   -0.8575    0.0000 C.ar    1  LIG1       -0.0404
      2 C           0.7332   -0.4450    0.0000 C.ar    1  LIG1       -0.0404
      3 C           0.7332    0.3800    0.0000 C.ar    1  LIG1        0.0500
      4 N           0.0188    0.7925    0.0000 N.ar    1  LIG1       -0.1577
      5 N          -0.6957    0.3800    0.0000 N.ar    1  LIG1       -0.1577
      6 C          -0.6957   -0.4450    0.0000 C.ar    1  LIG1        0.0500
      7 H           0.0188   -1.9590    0.0000 H       1  LIG1        0.0634
      8 H           1.6871   -0.9957    0.0000 H       1  LIG1        0.0634
      9 H           1.6871    0.9307    0.0000 H       1  LIG1        0.0848
     10 H          -1.6496   -0.9958    0.0000 H       1  LIG1        0.0848
@<TRIPOS>BOND
     1     1     2   ar
     2     2     3   ar
     3     3     4   ar
     4     4     5   ar
     5     5     6   ar
     6     1     6   ar
     7     1     7    1
     8     2     8    1
     9     3     9    1
    10     6    10    1
