@<TRIPOS>MOLECULE
Cn1c(=O)ccc2nc[nH]c12
 18 19 0 0 0
SMALL
GASTEIGER
Energy = 0

@<TRIPOS>ATOM
      1 C          -0.3023   -1.4061    0.0000 C.3     1  LIG1        0.0166
      2 N          -0.3023   -0.5811    0.0000 N.ar    1  LIG1       -0.2962
      3 C          -1.0168   -0.1686    0.0000 C.ar    1  LIG1        0.2526
      4 O          -1.7313   -0.5811    0.0000 O.2     1  LIG1       -0.2677
      5 C          -1.0168    0.6564    0.0000 C.ar    1  LIG1        0.0051
      6 C          -0.3023    1.0689    0.0000 C.ar    1  LIG1       -0.0276
      7 C           0.4121    0.6564    0.0000 C.ar    1  LIG1        0.1062
      8 C           0.4121   -0.1686    0.0000 C.ar    1  LIG1        0.1408
      9 N           1.1967   -0.4235    0.0000 N.ar    1  LIG1       -0.3305
     10 C           1.6817    0.2439    0.0000 C.ar    1  LIG1        0.0955
     11 N           1.1967    0.9114    0.0000 N.ar    1  LIG1       -0.2344
     12 H          -1.3769   -1.7866    0.0000 H       1  LIG1        0.0457
     13 H           0.2562   -1.8008    0.9121 H       1  LIG1        0.0457
     14 H           0.2279   -1.7808   -0.9370 H       1  LIG1        0.0457
     15 H          -1.9707    1.2072    0.0000 H       1  LIG1        0.0672
     16 H          -0.3023    2.1704    0.0000 H       1  LIG1        0.0642
     17 H           1.5312   -1.4530    0.0000 H       1  LIG1        0.1682
     18 H           2.7832    0.2439    0.0000 H       1  LIG1        0.1027
@<TRIPOS>BOND
     1     1     2    1
     2     2     3   ar
     3     3     4    2
     4     3     5   ar
     5     5     6   ar
     6     6     7   ar
     7     7     8   ar
     8     2     8   ar
     9     8     9   ar
    10     9    10   ar
    11    10    11   ar
    12     7    11   ar
    13     1    12    1
    14     1    13    1
    15     1    14    1
    16     5    15    1
    17     6    16    1
    18     9    17    1
    19    10    18    1
