@<TRIPOS>MOLECULE
O=c1[nH]cnc2ncnnc12
 14 15 0 0 0
SMALL
GASTEIGER
Energy = 0

@<TRIPOS>ATOM
      1 O           0.6460   -1.4693    0.0000 O.2     1  LIG1       -0.2654
      2 C           0.6460   -0.6443    0.0000 C.ar    1  LIG1        0.2808
      3 N           1.3605   -0.2318    0.0000 N.ar    1  LIG1       -0.3115
      4 C           1.3605    0.5932    0.0000 C.ar    1  LIG1        0.0985
      5 N           0.6460    1.0057    0.0000 N.ar    1  LIG1       -0.2162
      6 C          -0.0685    0.5932    0.0000 C.ar    1  LIG1        0.1884
      7 N          -0.7830    1.0057    0.0000 N.ar    1  LIG1       -0.2125
      8 C          -1.4974    0.5932    0.0000 C.ar    1  LIG1        0.1406
      9 N          -1.4974   -0.2318    0.0000 N.ar    1  LIG1       -0.1369
     10 N          -0.7830   -0.6443    0.0000 N.ar    1  LIG1       -0.1391
     11 C          -0.0685   -0.2318    0.0000 C.ar    1  LIG1        0.1941
     12 H           2.2980   -0.7731    0.0000 H       1  LIG1        0.1698
     13 H           2.3144    1.1440    0.0000 H       1  LIG1        0.1028
     14 H          -2.4513    1.1439    0.0000 H       1  LIG1        0.1066
@<TRIPOS>BOND
     1     1     2    2
     2     2     3   ar
     3     3     4   ar
     4     4     5   ar
     5     5     6   ar
     6     6     7   ar
     7     7     8   ar
     8     8     9   ar
     9     9    10   ar
    10    10    11   ar
    11     2    11   ar
    12     6    11   ar
    13     3    12    1
    14     4    13    1
    15     8    14    1
