@<TRIPOS>MOLECULE
O=c1cc2cc[nH]c(=O)n2[nH]1
 16 17 0 0 0
SMALL
GASTEIGER
Energy = 0

@<TRIPOS>ATOM
      1 O           2.0713   -0.2011    0.0000 O.2     1  LIG1       -0.2664
      2 C           1.2463   -0.2011    0.0000 C.ar    1  LIG1        0.2656
      3 N           0.7613    0.4663    0.0000 N.ar    1  LIG1       -0.2549
      4 N          -0.0233    0.2114    0.0000 N.ar    1  LIG1       -0.2018
      5 C          -0.7378    0.6239    0.0000 C.ar    1  LIG1        0.3458
      6 O          -0.7378    1.4489    0.0000 O.2     1  LIG1       -0.2447
      7 N          -1.4522    0.2114    0.0000 N.ar    1  LIG1       -0.3129
      8 C          -1.4522   -0.6136    0.0000 C.ar    1  LIG1        0.0084
      9 C          -0.7378   -1.0261    0.0000 C.ar    1  LIG1       -0.0199
     10 C          -0.0233   -0.6136    0.0000 C.ar    1  LIG1        0.0752
     11 C           0.7613   -0.8685    0.0000 C.ar    1  LIG1        0.0297
     12 H           1.0958    1.4958    0.0000 H       1  LIG1        0.1907
     13 H          -2.3897    0.7526    0.0000 H       1  LIG1        0.1699
     14 H          -2.4061   -1.1643    0.0000 H       1  LIG1        0.0809
     15 H          -0.7378   -2.1276    0.0000 H       1  LIG1        0.0653
     16 H           1.1016   -1.9161    0.0000 H       1  LIG1        0.0693
@<TRIPOS>BOND
     1     1     2    2
     2     2     3   ar
     3     3     4   ar
     4     4     5   ar
     5     5     6    2
     6     5     7   ar
     7     7     8   ar
     8     8     9   ar
     9     9    10   ar
    10     4    10   ar
    11    10    11   ar
    12     2    11   ar
    13     3    12    1
    14     7    13    1
    15     8    14    1
    16     9    15    1
    17    11    16    1
