@<TRIPOS>MOLECULE
Cn1ncc2ccncc2c1=O
 19 20 0 0 0
SMALL
GASTEIGER
Energy = 0

@<TRIPOS>ATOM
      1 C           1.8837   -0.5841    0.0000 C.3     1  LIG1        0.0340
      2 N           1.1692   -0.1716    0.0000 N.ar    1  LIG1       -0.2321
      3 N           1.1692    0.6534    0.0000 N.ar    1  LIG1       -0.1763
      4 C           0.4547    1.0659    0.0000 C.ar    1  LIG1        0.0560
      5 C          -0.2597    0.6534    0.0000 C.ar    1  LIG1        0.0100
      6 C          -0.9742    1.0659    0.0000 C.ar    1  LIG1       -0.0342
      7 C          -1.6887    0.6534    0.0000 C.ar    1  LIG1        0.0282
      8 N          -1.6887   -0.1716    0.0000 N.ar    1  LIG1       -0.2625
      9 C          -0.9742   -0.5841    0.0000 C.ar    1  LIG1        0.0405
     10 C          -0.2597   -0.1716    0.0000 C.ar    1  LIG1        0.0676
     11 C           0.4547   -0.5841    0.0000 C.ar    1  LIG1        0.2762
     12 O           0.4547   -1.4091    0.0000 O.2     1  LIG1       -0.2655
     13 H           2.7505    0.1563    0.0000 H       1  LIG1        0.0474
     14 H           1.9463   -1.2651   -0.9121 H       1  LIG1        0.0474
     15 H           1.9431   -1.2307    0.9370 H       1  LIG1        0.0474
     16 H           0.4547    2.1674    0.0000 H       1  LIG1        0.0853
     17 H          -0.9742    2.1674    0.0000 H       1  LIG1        0.0639
     18 H          -2.6426    1.2042    0.0000 H       1  LIG1        0.0830
     19 H          -0.9742   -1.6856    0.0000 H       1  LIG1        0.0837
@<TRIPOS>BOND
     1     1     2    1
     2     2     3   ar
     3     3     4   ar
     4     4     5   ar
     5     5     6   ar
     6     6     7   ar
     7     7     8   ar
     8     8     9   ar
     9     9    10   ar
    10     5    10   ar
    11    10    11   ar
    12     2    11   ar
    13    11    12    2
    14     1    13    1
    15     1    14    1
    16     1    15    1
    17     4    16    1
    18     6    17    1
    19     7    18    1
    20     9    19    1
