@<TRIPOS>MOLECULE
Cn1c(=O)[nH]c(=O)c2[nH]ccc12
 19 20 0 0 0
SMALL
GASTEIGER
Energy = 0

@<TRIPOS>ATOM
      1 C          -0.2438   -1.6114    0.0000 C.3     1  LIG1        0.0167
      2 N          -0.2438   -0.7864    0.0000 N.ar    1  LIG1       -0.2950
      3 C          -0.9583   -0.3739    0.0000 C.ar    1  LIG1        0.3296
      4 O          -1.6727   -0.7864    0.0000 O.2     1  LIG1       -0.2465
      5 N          -0.9583    0.4511    0.0000 N.ar    1  LIG1       -0.2732
      6 C          -0.2438    0.8636    0.0000 C.ar    1  LIG1        0.2780
      7 O          -0.2438    1.6886    0.0000 O.2     1  LIG1       -0.2655
      8 C           0.4707    0.4511    0.0000 C.ar    1  LIG1        0.1284
      9 C           0.4707   -0.3739    0.0000 C.ar    1  LIG1        0.0759
     10 C           1.2553   -0.6288    0.0000 C.ar    1  LIG1       -0.0199
     11 C           1.7402    0.0386    0.0000 C.ar    1  LIG1        0.0043
     12 N           1.2553    0.7061    0.0000 N.ar    1  LIG1       -0.3553
     13 H          -1.3184   -1.9919    0.0000 H       1  LIG1        0.0457
     14 H           0.3147   -2.0061    0.9121 H       1  LIG1        0.0457
     15 H           0.2864   -1.9861   -0.9370 H       1  LIG1        0.0457
     16 H          -1.8958    0.9924    0.0000 H       1  LIG1        0.1735
     17 H           1.5957   -1.6764    0.0000 H       1  LIG1        0.0653
     18 H           2.8417    0.0386    0.0000 H       1  LIG1        0.0807
     19 H           1.5898    1.7356    0.0000 H       1  LIG1        0.1655
@<TRIPOS>BOND
     1     1     2    1
     2     2     3   ar
     3     3     4    2
     4     3     5   ar
     5     5     6   ar
     6     6     7    2
     7     6     8   ar
     8     8     9   ar
     9     2     9   ar
    10     9    10   ar
    11    10    11   ar
    12    11    12   ar
    13     8    12   ar
    14     1    13    1
    15     1    14    1
    16     1    15    1
    17     5    16    1
    18    10    17    1
    19    11    18    1
    20    12    19    1
