@<TRIPOS>MOLECULE
c1ncnnn1
 8 8 0 0 0
SMALL
GASTEIGER
Energy = 0

@<TRIPOS>ATOM
      1 C           0.0178   -0.8353    0.0000 C.ar    1  LIG1        0.1416
      2 N           0.7323   -0.4228    0.0000 N.ar    1  LIG1       -0.2205
      3 C           0.7323    0.4022    0.0000 C.ar    1  LIG1        0.1416
      4 N           0.0178    0.8147    0.0000 N.ar    1  LIG1       -0.1179
      5 N          -0.6967    0.4022    0.0000 N.ar    1  LIG1       -0.0404
      6 N          -0.6967   -0.4228    0.0000 N.ar    1  LIG1       -0.1179
      7 H           0.0178   -1.9368    0.0000 H       1  LIG1        0.1067
      8 H           1.6862    0.9530    0.0000 H       1  LIG1        0.1067
@<TRIPOS>BOND
     1     1     2   ar
     2     2     3   ar
     3     3     4   ar
     4     4     5   ar
     5     5     6   ar
     6     1     6   ar
     7     1     7    1
     8     3     8    1
