@<TRIPOS>MOLECULE
Cn1ncc2c(=O)[nH]ncc12
 17 18 0 0 0
SMALL
GASTEIGER
Energy = 0

@<TRIPOS>ATOM
      1 C           1.1641   -1.5050    0.0000 C.3     1  LIG1        0.0309
      2 N           0.9091   -0.7204    0.0000 N.ar    1  LIG1       -0.2650
      3 N           1.3941   -0.0529    0.0000 N.ar    1  LIG1       -0.1785
      4 C           0.9091    0.6145    0.0000 C.ar    1  LIG1        0.0624
      5 C           0.1245    0.3596    0.0000 C.ar    1  LIG1        0.0868
      6 C           0.1245   -0.4654    0.0000 C.ar    1  LIG1        0.0935
      7 C          -0.5900   -0.8779    0.0000 C.ar    1  LIG1        0.0736
      8 N          -1.3044   -0.4654    0.0000 N.ar    1  LIG1       -0.1772
      9 N          -1.3044    0.3596    0.0000 N.ar    1  LIG1       -0.2426
     10 C          -0.5900    0.7721    0.0000 C.ar    1  LIG1        0.2754
     11 O          -0.5900    1.5971    0.0000 O.2     1  LIG1       -0.2657
     12 H           2.3037   -1.5348    0.0000 H       1  LIG1        0.0473
     13 H           0.7550   -2.0530   -0.9121 H       1  LIG1        0.0473
     14 H           0.7756   -2.0253    0.9370 H       1  LIG1        0.0473
     15 H           1.2494    1.6621    0.0000 H       1  LIG1        0.0856
     16 H          -0.5900   -1.9794    0.0000 H       1  LIG1        0.0869
     17 H          -2.2419    0.9008    0.0000 H       1  LIG1        0.1921
@<TRIPOS>BOND
     1     1     2    1
     2     2     3   ar
     3     3     4   ar
     4     4     5   ar
     5     5     6   ar
     6     2     6   ar
     7     6     7   ar
     8     7     8   ar
     9     8     9   ar
    10     9    10   ar
    11     5    10   ar
    12    10    11    2
    13     1    12    1
    14     1    13    1
    15     1    14    1
    16     4    15    1
    17     7    16    1
    18     9    17    1
