@<TRIPOS>MOLECULE
c1cc2nn[nH]c2nn1
 12 13 0 0 0
SMALL
GASTEIGER
Energy = 0

@<TRIPOS>ATOM
      1 N           0.9202   -0.6465    0.0000 N.ar    1  LIG1       -0.2389
      2 N           1.4051    0.0209    0.0000 N.ar    1  LIG1       -0.0660
      3 N           0.9202    0.6884    0.0000 N.ar    1  LIG1       -0.1279
      4 C           0.1355    0.4334    0.0000 C.ar    1  LIG1        0.1345
      5 C           0.1355   -0.3916    0.0000 C.ar    1  LIG1        0.1978
      6 N          -0.5789   -0.8041    0.0000 N.ar    1  LIG1       -0.1280
      7 N          -1.2934   -0.3916    0.0000 N.ar    1  LIG1       -0.1555
      8 C          -1.2934    0.4334    0.0000 C.ar    1  LIG1        0.0522
      9 C          -0.5789    0.8459    0.0000 C.ar    1  LIG1       -0.0109
     10 H           1.2547   -1.6760    0.0000 H       1  LIG1        0.1923
     11 H          -2.2473    0.9842    0.0000 H       1  LIG1        0.0849
     12 H          -0.5789    1.9474    0.0000 H       1  LIG1        0.0656
@<TRIPOS>BOND
     1     1     2   ar
     2     2     3   ar
     3     3     4   ar
     4     4     5   ar
     5     1     5   ar
     6     5     6   ar
     7     6     7   ar
     8     7     8   ar
     9     8     9   ar
    10     4     9   ar
    11     1    10    1
    12     8    11    1
    13     9    12    1
