@<TRIPOS>MOLECULE
O=c1[nH]ncc2cnsc12
 13 14 0 0 0
SMALL
GASTEIGER
Energy = 0

@<TRIPOS>ATOM
      1 O          -0.6062   -1.3850    0.0000 O.2     1  LIG1       -0.2652
      2 C          -0.6062   -0.5600    0.0000 C.ar    1  LIG1        0.2805
      3 N          -1.3207   -0.1475    0.0000 N.ar    1  LIG1       -0.2422
      4 N          -1.3207    0.6775    0.0000 N.ar    1  LIG1       -0.1787
      5 C          -0.6062    1.0900    0.0000 C.ar    1  LIG1        0.0577
      6 C           0.1083    0.6775    0.0000 C.ar    1  LIG1        0.0338
      7 C           0.1083   -0.1475    0.0000 C.ar    1  LIG1        0.1063
      8 S           0.8929   -0.4025    0.0000 S.2     1  LIG1        0.0171
      9 N           1.3778    0.2650    0.0000 N.ar    1  LIG1       -0.2173
     10 C           0.8929    0.9324    0.0000 C.ar    1  LIG1        0.0461
     11 H          -2.2582   -0.6888    0.0000 H       1  LIG1        0.1921
     12 H          -0.6062    2.1915    0.0000 H       1  LIG1        0.0854
     13 H           1.2333    1.9800    0.0000 H       1  LIG1        0.0843
@<TRIPOS>BOND
     1     1     2    2
     2     2     3   ar
     3     3     4   ar
     4     4     5   ar
     5     5     6   ar
     6     6     7   ar
     7     2     7   ar
     8     7     8   ar
     9     8     9   ar
    10     9    10   ar
    11     6    10   ar
    12     3    11    1
    13     5    12    1
    14    10    13    1
