@<TRIPOS>MOLECULE
c1occ2cnccc12
 14 15 0 0 0
SMALL
GASTEIGER
Energy = 0

@<TRIPOS>ATOM
      1 O           1.4026    0.0072    0.0000 O.2     1  LIG1       -0.4698
      2 C           0.9177    0.6747    0.0000 C.ar    1  LIG1        0.0995
      3 C           0.1331    0.4197    0.0000 C.ar    1  LIG1        0.0227
      4 C          -0.5814    0.8322    0.0000 C.ar    1  LIG1       -0.0329
      5 C          -1.2959    0.4197    0.0000 C.ar    1  LIG1        0.0282
      6 N          -1.2959   -0.4053    0.0000 N.ar    1  LIG1       -0.2625
      7 C          -0.5814   -0.8178    0.0000 C.ar    1  LIG1        0.0383
      8 C           0.1331   -0.4053    0.0000 C.ar    1  LIG1        0.0379
      9 C           0.9177   -0.6602    0.0000 C.ar    1  LIG1        0.1008
     10 H           1.2581    1.7223    0.0000 H       1  LIG1        0.1035
     11 H          -0.5814    1.9337    0.0000 H       1  LIG1        0.0640
     12 H          -2.2498    0.9705    0.0000 H       1  LIG1        0.0830
     13 H          -0.5814   -1.9193    0.0000 H       1  LIG1        0.0837
     14 H           1.2581   -1.7078    0.0000 H       1  LIG1        0.1036
@<TRIPOS>BOND
     1     1     2   ar
     2     2     3   ar
     3     3     4   ar
     4     4     5   ar
     5     5     6   ar
     6     6     7   ar
     7     7     8   ar
     8     3     8   ar
     9     8     9   ar
    10     1     9   ar
    11     2    10    1
    12     4    11    1
    13     5    12    1
    14     7    13    1
    15     9    14    1
