@<TRIPOS>MOLECULE
c1cc2cccnc2o1
 14 15 0 0 0
SMALL
GASTEIGER
Energy = 0

@<TRIPOS>ATOM
      1 O           0.9221   -0.6297    0.0000 O.2     1  LIG1       -0.4450
      2 C           1.4071    0.0378    0.0000 C.ar    1  LIG1        0.0951
      3 C           0.9221    0.7052    0.0000 C.ar    1  LIG1       -0.0145
      4 C           0.1375    0.4503    0.0000 C.ar    1  LIG1        0.0398
      5 C          -0.5770    0.8628    0.0000 C.ar    1  LIG1       -0.0480
      6 C          -1.2914    0.4503    0.0000 C.ar    1  LIG1       -0.0428
      7 C          -1.2914   -0.3747    0.0000 C.ar    1  LIG1        0.0314
      8 N          -0.5770   -0.7872    0.0000 N.ar    1  LIG1       -0.2205
      9 C           0.1375   -0.3747    0.0000 C.ar    1  LIG1        0.2270
     10 H           2.5086    0.0378    0.0000 H       1  LIG1        0.1030
     11 H           1.2624    1.7528    0.0000 H       1  LIG1        0.0656
     12 H          -0.5770    1.9643    0.0000 H       1  LIG1        0.0626
     13 H          -2.2453    1.0010    0.0000 H       1  LIG1        0.0633
     14 H          -2.2453   -0.9254    0.0000 H       1  LIG1        0.0831
@<TRIPOS>BOND
     1     1     2   ar
     2     2     3   ar
     3     3     4   ar
     4     4     5   ar
     5     5     6   ar
     6     6     7   ar
     7     7     8   ar
     8     8     9   ar
     9     1     9   ar
    10     4     9   ar
    11     2    10    1
    12     3    11    1
    13     5    12    1
    14     6    13    1
    15     7    14    1
