@<TRIPOS>MOLECULE
Cn1ccc2ncncc2c1=O
 19 20 0 0 0
SMALL
GASTEIGER
Energy = 0

@<TRIPOS>ATOM
      1 C           1.9114   -0.5894    0.0000 C.3     1  LIG1        0.0147
      2 N           1.1970   -0.1769    0.0000 N.ar    1  LIG1       -0.3176
      3 C           1.1970    0.6481    0.0000 C.ar    1  LIG1        0.0096
      4 C           0.4825    1.0606    0.0000 C.ar    1  LIG1       -0.0192
      5 C          -0.2320    0.6481    0.0000 C.ar    1  LIG1        0.0807
      6 N          -0.9464    1.0606    0.0000 N.ar    1  LIG1       -0.2352
      7 C          -1.6609    0.6481    0.0000 C.ar    1  LIG1        0.1166
      8 N          -1.6609   -0.1769    0.0000 N.ar    1  LIG1       -0.2429
      9 C          -0.9464   -0.5894    0.0000 C.ar    1  LIG1        0.0437
     10 C          -0.2320   -0.1769    0.0000 C.ar    1  LIG1        0.0829
     11 C           0.4825   -0.5894    0.0000 C.ar    1  LIG1        0.2617
     12 O           0.4825   -1.4144    0.0000 O.2     1  LIG1       -0.2669
     13 H           2.7783    0.1509    0.0000 H       1  LIG1        0.0457
     14 H           1.9739   -1.2704   -0.9121 H       1  LIG1        0.0457
     15 H           1.9708   -1.2360    0.9370 H       1  LIG1        0.0457
     16 H           2.1509    1.1989    0.0000 H       1  LIG1        0.0810
     17 H           0.4825    2.1621    0.0000 H       1  LIG1        0.0653
     18 H          -2.6148    1.1989    0.0000 H       1  LIG1        0.1047
     19 H          -0.9464   -1.6909    0.0000 H       1  LIG1        0.0838
@<TRIPOS>BOND
     1     1     2    1
     2     2     3   ar
     3     3     4   ar
     4     4     5   ar
     5     5     6   ar
     6     6     7   ar
     7     7     8   ar
     8     8     9   ar
     9     9    10   ar
    10     5    10   ar
    11    10    11   ar
    12     2    11   ar
    13    11    12    2
    14     1    13    1
    15     1    14    1
    16     1    15    1
    17     3    16    1
    18     4    17    1
    19     7    18    1
    20     9    19    1
