@<TRIPOS>MOLECULE
c1[nH]cc2ncncc12
 14 15 0 0 0
SMALL
GASTEIGER
Energy = 0

@<TRIPOS>ATOM
      1 N           1.4373    0.0072    0.0000 N.ar    1  LIG1       -0.3646
      2 C           0.9524    0.6747    0.0000 C.ar    1  LIG1        0.0124
      3 C           0.1677    0.4197    0.0000 C.ar    1  LIG1        0.0358
      4 C          -0.5467    0.8322    0.0000 C.ar    1  LIG1        0.0399
      5 N          -1.2612    0.4197    0.0000 N.ar    1  LIG1       -0.2430
      6 C          -1.2612   -0.4053    0.0000 C.ar    1  LIG1        0.1166
      7 N          -0.5467   -0.8178    0.0000 N.ar    1  LIG1       -0.2339
      8 C           0.1677   -0.4053    0.0000 C.ar    1  LIG1        0.0914
      9 C           0.9524   -0.6602    0.0000 C.ar    1  LIG1        0.0280
     10 H           2.5198    0.0072    0.0000 H       1  LIG1        0.1648
     11 H           1.2928    1.7223    0.0000 H       1  LIG1        0.0814
     12 H          -0.5467    1.9337    0.0000 H       1  LIG1        0.0837
     13 H          -2.2151   -0.9561    0.0000 H       1  LIG1        0.1047
     14 H           1.2928   -1.7078    0.0000 H       1  LIG1        0.0829
@<TRIPOS>BOND
     1     1     2   ar
     2     2     3   ar
     3     3     4   ar
     4     4     5   ar
     5     5     6   ar
     6     6     7   ar
     7     7     8   ar
     8     3     8   ar
     9     8     9   ar
    10     1     9   ar
    11     1    10    1
    12     2    11    1
    13     4    12    1
    14     6    13    1
    15     9    14    1
