@<TRIPOS>MOLECULE
O=c1ncc2cnncc2[nH]1
 15 16 0 0 0
SMALL
GASTEIGER
Energy = 0

@<TRIPOS>ATOM
      1 O           1.9153    0.7277    0.0000 O.2     1  LIG1       -0.2447
      2 C           1.2008    0.3152    0.0000 C.ar    1  LIG1        0.3463
      3 N           0.4864    0.7277    0.0000 N.ar    1  LIG1       -0.3044
      4 C          -0.2281    0.3152    0.0000 C.ar    1  LIG1        0.0733
      5 C          -0.9426    0.7277    0.0000 C.ar    1  LIG1        0.0740
      6 N          -1.6570    0.3152    0.0000 N.ar    1  LIG1       -0.1556
      7 N          -1.6570   -0.5098    0.0000 N.ar    1  LIG1       -0.1569
      8 C          -0.9426   -0.9223    0.0000 C.ar    1  LIG1        0.0605
      9 C          -0.2281   -0.5098    0.0000 C.ar    1  LIG1        0.0380
     10 C           0.4864   -0.9223    0.0000 C.ar    1  LIG1        0.0437
     11 N           1.2008   -0.5098    0.0000 N.ar    1  LIG1       -0.2008
     12 H           0.4864    1.8102    0.0000 H       1  LIG1        0.1705
     13 H          -0.9426    1.8292    0.0000 H       1  LIG1        0.0869
     14 H          -0.9426   -2.0238    0.0000 H       1  LIG1        0.0855
     15 H           0.4864   -2.0238    0.0000 H       1  LIG1        0.0838
@<TRIPOS>BOND
     1     1     2    2
     2     2     3   ar
     3     3     4   ar
     4     4     5   ar
     5     5     6   ar
     6     6     7   ar
     7     7     8   ar
     8     8     9   ar
     9     4     9   ar
    10     9    10   ar
    11    10    11   ar
    12     2    11   ar
    13     3    12    1
    14     5    13    1
    15     8    14    1
    16    10    15    1
