@<TRIPOS>MOLECULE
O=c1[nH][nH]c2cnccc12
 15 16 0 0 0
SMALL
GASTEIGER
Energy = 0

@<TRIPOS>ATOM
      1 O           1.0358   -1.2900    0.0000 O.2     1  LIG1       -0.2658
      2 C           0.7809   -0.5054    0.0000 C.ar    1  LIG1        0.2723
      3 N           1.2658    0.1620    0.0000 N.ar    1  LIG1       -0.2651
      4 N           0.7809    0.8295    0.0000 N.ar    1  LIG1       -0.2951
      5 C          -0.0038    0.5745    0.0000 C.ar    1  LIG1        0.0855
      6 C          -0.7182    0.9870    0.0000 C.ar    1  LIG1        0.0530
      7 N          -1.4327    0.5745    0.0000 N.ar    1  LIG1       -0.2611
      8 C          -1.4327   -0.2505    0.0000 C.ar    1  LIG1        0.0284
      9 C          -0.7182   -0.6630    0.0000 C.ar    1  LIG1       -0.0292
     10 C          -0.0038   -0.2505    0.0000 C.ar    1  LIG1        0.0682
     11 H           2.3483    0.1620    0.0000 H       1  LIG1        0.1899
     12 H           1.1154    1.8590    0.0000 H       1  LIG1        0.1869
     13 H          -0.7182    2.0885    0.0000 H       1  LIG1        0.0851
     14 H          -2.3866   -0.8013    0.0000 H       1  LIG1        0.0830
     15 H          -0.7182   -1.7645    0.0000 H       1  LIG1        0.0641
@<TRIPOS>BOND
     1     1     2    2
     2     2     3   ar
     3     3     4   ar
     4     4     5   ar
     5     5     6   ar
     6     6     7   ar
     7     7     8   ar
     8     8     9   ar
     9     9    10   ar
    10     2    10   ar
    11     5    10   ar
    12     3    11    1
    13     4    12    1
    14     6    13    1
    15     8    14    1
    16     9    15    1
