@<TRIPOS>MOLECULE
O=c1ncn2ccccn12
 15 16 0 0 0
SMALL
GASTEIGER
Energy = 0

@<TRIPOS>ATOM
      1 O           1.0259   -1.2735    0.0000 O.2     1  LIG1       -0.2426
      2 C           0.7710   -0.4888    0.0000 C.ar    1  LIG1        0.3689
      3 N           1.2559    0.1786    0.0000 N.ar    1  LIG1       -0.1801
      4 C           0.7710    0.8460    0.0000 C.ar    1  LIG1        0.1215
      5 N          -0.0136    0.5911    0.0000 N.ar    1  LIG1       -0.2407
      6 C          -0.7281    1.0036    0.0000 C.ar    1  LIG1        0.0295
      7 C          -1.4426    0.5911    0.0000 C.ar    1  LIG1       -0.0422
      8 C          -1.4426   -0.2339    0.0000 C.ar    1  LIG1       -0.0420
      9 C          -0.7281   -0.6464    0.0000 C.ar    1  LIG1        0.0330
     10 N          -0.0136   -0.2339    0.0000 N.ar    1  LIG1       -0.2028
     11 H           1.1114    1.8936    0.0000 H       1  LIG1        0.1048
     12 H          -0.7281    2.1051    0.0000 H       1  LIG1        0.0830
     13 H          -2.3965    1.1419    0.0000 H       1  LIG1        0.0633
     14 H          -2.3965   -0.7847    0.0000 H       1  LIG1        0.0633
     15 H          -0.7281   -1.7479    0.0000 H       1  LIG1        0.0831
@<TRIPOS>BOND
     1     1     2    2
     2     2     3   ar
     3     3     4   ar
     4     4     5   ar
     5     5     6   ar
     6     6     7   ar
     7     7     8   ar
     8     8     9   ar
     9     9    10   ar
    10     2    10   ar
    11     5    10   ar
    12     4    11    1
    13     6    12    1
    14     7    13    1
    15     8    14    1
    16     9    15    1
