@<TRIPOS>MOLECULE
O=c1ncc2ocnc2[nH]1
 13 14 0 0 0
SMALL
GASTEIGER
Energy = 0

@<TRIPOS>ATOM
      1 O          -1.7610    0.7303    0.0000 O.2     1  LIG1       -0.2447
      2 C          -1.0466    0.3178    0.0000 C.ar    1  LIG1        0.3475
      3 N          -0.3321    0.7303    0.0000 N.ar    1  LIG1       -0.2880
      4 C           0.3824    0.3178    0.0000 C.ar    1  LIG1        0.1822
      5 C           0.3824   -0.5072    0.0000 C.ar    1  LIG1        0.1900
      6 O           1.1670   -0.7621    0.0000 O.2     1  LIG1       -0.4393
      7 C           1.6519   -0.0947    0.0000 C.ar    1  LIG1        0.1846
      8 N           1.1670    0.5728    0.0000 N.ar    1  LIG1       -0.1981
      9 C          -0.3321   -0.9197    0.0000 C.ar    1  LIG1        0.0789
     10 N          -1.0466   -0.5072    0.0000 N.ar    1  LIG1       -0.1977
     11 H          -0.3321    1.8128    0.0000 H       1  LIG1        0.1720
     12 H           2.7534   -0.0947    0.0000 H       1  LIG1        0.1255
     13 H          -0.3321   -2.0212    0.0000 H       1  LIG1        0.0870
@<TRIPOS>BOND
     1     1     2    2
     2     2     3   ar
     3     3     4   ar
     4     4     5   ar
     5     5     6   ar
     6     6     7   ar
     7     7     8   ar
     8     4     8   ar
     9     5     9   ar
    10     9    10   ar
    11     2    10   ar
    12     3    11    1
    13     7    12    1
    14     9    13    1
