@<TRIPOS>MOLECULE
c1cc2sncc2[nH]1
 12 13 0 0 0
SMALL
GASTEIGER
Energy = 0

@<TRIPOS>ATOM
      1 N           0.9237   -0.7678    0.0000 N.ar    1  LIG1       -0.3590
      2 C           1.4086   -0.1003    0.0000 C.ar    1  LIG1        0.0033
      3 C           0.9237    0.5671    0.0000 C.ar    1  LIG1       -0.0286
      4 C           0.1390    0.3122    0.0000 C.ar    1  LIG1        0.0568
      5 C           0.1390   -0.5128    0.0000 C.ar    1  LIG1        0.0735
      6 C          -0.6456   -0.7678    0.0000 C.ar    1  LIG1        0.0605
      7 N          -1.1305   -0.1003    0.0000 N.ar    1  LIG1       -0.2161
      8 S          -0.6456    0.5671    0.0000 S.2     1  LIG1        0.0132
      9 H           1.2582   -1.7973    0.0000 H       1  LIG1        0.1654
     10 H           2.5101   -0.1003    0.0000 H       1  LIG1        0.0807
     11 H           1.2641    1.6147    0.0000 H       1  LIG1        0.0644
     12 H          -0.9860   -1.8154    0.0000 H       1  LIG1        0.0858
@<TRIPOS>BOND
     1     1     2   ar
     2     2     3   ar
     3     3     4   ar
     4     4     5   ar
     5     1     5   ar
     6     5     6   ar
     7     6     7   ar
     8     7     8   ar
     9     4     8   ar
    10     1     9    1
    11     2    10    1
    12     3    11    1
    13     6    12    1
