@<TRIPOS>MOLECULE
Cn1ccc2ncsc12
 15 16 0 0 0
SMALL
GASTEIGER
Energy = 0

@<TRIPOS>ATOM
      1 C           1.0642   -1.2188    0.0000 C.3     1  LIG1        0.0124
      2 N           0.8092   -0.4342    0.0000 N.ar    1  LIG1       -0.3431
      3 C           1.2941    0.2333    0.0000 C.ar    1  LIG1        0.0074
      4 C           0.8092    0.9007    0.0000 C.ar    1  LIG1       -0.0176
      5 C           0.0246    0.6458    0.0000 C.ar    1  LIG1        0.0961
      6 C           0.0246   -0.1792    0.0000 C.ar    1  LIG1        0.1070
      7 S          -0.7600   -0.4342    0.0000 S.2     1  LIG1       -0.0576
      8 C          -1.2450    0.2333    0.0000 C.ar    1  LIG1        0.0673
      9 N          -0.7600    0.9007    0.0000 N.ar    1  LIG1       -0.2458
     10 H           2.2038   -1.2486    0.0000 H       1  LIG1        0.0456
     11 H           0.6551   -1.7668   -0.9121 H       1  LIG1        0.0456
     12 H           0.6757   -1.7391    0.9370 H       1  LIG1        0.0456
     13 H           2.3956    0.2333    0.0000 H       1  LIG1        0.0810
     14 H           1.1496    1.9483    0.0000 H       1  LIG1        0.0654
     15 H          -2.3465    0.2333    0.0000 H       1  LIG1        0.0908
@<TRIPOS>BOND
     1     1     2    1
     2     2     3   ar
     3     3     4   ar
     4     4     5   ar
     5     5     6   ar
     6     2     6   ar
     7     6     7   ar
     8     7     8   ar
     9     8     9   ar
    10     5     9   ar
    11     1    10    1
    12     1    11    1
    13     1    12    1
    14     3    13    1
    15     4    14    1
    16     8    15    1
