@<TRIPOS>MOLECULE
Cn1c(=O)ncc2nccnc12
 18 19 0 0 0
SMALL
GASTEIGER
Energy = 0

@<TRIPOS>ATOM
      1 C           0.4307   -1.4332    0.0000 C.3     1  LIG1        0.0182
      2 N           0.4307   -0.6082    0.0000 N.ar    1  LIG1       -0.2783
      3 C           1.1451   -0.1957    0.0000 C.ar    1  LIG1        0.3498
      4 O           1.8596   -0.6082    0.0000 O.2     1  LIG1       -0.2445
      5 N           1.1451    0.6293    0.0000 N.ar    1  LIG1       -0.1991
      6 C           0.4307    1.0418    0.0000 C.ar    1  LIG1        0.0619
      7 C          -0.2838    0.6293    0.0000 C.ar    1  LIG1        0.1244
      8 N          -0.9983    1.0418    0.0000 N.ar    1  LIG1       -0.2489
      9 C          -1.7127    0.6293    0.0000 C.ar    1  LIG1        0.0465
     10 C          -1.7127   -0.1957    0.0000 C.ar    1  LIG1        0.0480
     11 N          -0.9983   -0.6082    0.0000 N.ar    1  LIG1       -0.2341
     12 C          -0.2838   -0.1957    0.0000 C.ar    1  LIG1        0.1643
     13 H           1.5053   -1.8137    0.0000 H       1  LIG1        0.0458
     14 H          -0.1278   -1.8279   -0.9121 H       1  LIG1        0.0458
     15 H          -0.0995   -1.8079    0.9370 H       1  LIG1        0.0458
     16 H           0.4307    2.1433    0.0000 H       1  LIG1        0.0854
     17 H          -2.6666    1.1800    0.0000 H       1  LIG1        0.0845
     18 H          -2.6666   -0.7464    0.0000 H       1  LIG1        0.0846
@<TRIPOS>BOND
     1     1     2    1
     2     2     3   ar
     3     3     4    2
     4     3     5   ar
     5     5     6   ar
     6     6     7   ar
     7     7     8   ar
     8     8     9   ar
     9     9    10   ar
    10    10    11   ar
    11    11    12   ar
    12     2    12   ar
    13     7    12   ar
    14     1    13    1
    15     1    14    1
    16     1    15    1
    17     6    16    1
    18     9    17    1
    19    10    18    1
