@<TRIPOS>MOLECULE
Cn1cccc2nnnc12
 16 17 0 0 0
SMALL
GASTEIGER
Energy = 0

@<TRIPOS>ATOM
      1 C           0.5448   -1.4824    0.0000 C.3     1  LIG1        0.0133
      2 N           0.5448   -0.6574    0.0000 N.ar    1  LIG1       -0.3323
      3 C           1.2593   -0.2449    0.0000 C.ar    1  LIG1        0.0063
      4 C           1.2593    0.5801    0.0000 C.ar    1  LIG1       -0.0434
      5 C           0.5448    0.9926    0.0000 C.ar    1  LIG1       -0.0295
      6 C          -0.1697    0.5801    0.0000 C.ar    1  LIG1        0.1319
      7 N          -0.9543    0.8350    0.0000 N.ar    1  LIG1       -0.1262
      8 N          -1.4392    0.1676    0.0000 N.ar    1  LIG1       -0.0406
      9 N          -0.9543   -0.4999    0.0000 N.ar    1  LIG1       -0.1093
     10 C          -0.1697   -0.2449    0.0000 C.ar    1  LIG1        0.1845
     11 H           1.6194   -1.8629    0.0000 H       1  LIG1        0.0456
     12 H          -0.0137   -1.8771   -0.9121 H       1  LIG1        0.0456
     13 H           0.0146   -1.8571    0.9370 H       1  LIG1        0.0456
     14 H           2.2132   -0.7957    0.0000 H       1  LIG1        0.0809
     15 H           2.2132    1.1309    0.0000 H       1  LIG1        0.0633
     16 H           0.5448    2.0941    0.0000 H       1  LIG1        0.0641
@<TRIPOS>BOND
     1     1     2    1
     2     2     3   ar
     3     3     4   ar
     4     4     5   ar
     5     5     6   ar
     6     6     7   ar
     7     7     8   ar
     8     8     9   ar
     9     9    10   ar
    10     2    10   ar
    11     6    10   ar
    12     1    11    1
    13     1    12    1
    14     1    13    1
    15     3    14    1
    16     4    15    1
    17     5    16    1
