@<TRIPOS>MOLECULE
O=c1nc[nH]c2cc[nH]c(=O)c12
 17 18 0 0 0
SMALL
GASTEIGER
Energy = 0

@<TRIPOS>ATOM
      1 O           0.7235   -1.3160    0.0000 O.2     1  LIG1       -0.2670
      2 C           0.7235   -0.4910    0.0000 C.ar    1  LIG1        0.2632
      3 N           1.4380   -0.0785    0.0000 N.ar    1  LIG1       -0.3284
      4 C           1.4380    0.7465    0.0000 C.ar    1  LIG1        0.0069
      5 C           0.7235    1.1590    0.0000 C.ar    1  LIG1       -0.0214
      6 C           0.0090    0.7465    0.0000 C.ar    1  LIG1        0.0594
      7 C           0.0090   -0.0785    0.0000 C.ar    1  LIG1        0.1286
      8 C          -0.7055   -0.4910    0.0000 C.ar    1  LIG1        0.2859
      9 O          -0.7055   -1.3160    0.0000 O.2     1  LIG1       -0.2649
     10 N          -1.4199   -0.0785    0.0000 N.ar    1  LIG1       -0.1989
     11 C          -1.4199    0.7465    0.0000 C.ar    1  LIG1        0.0977
     12 N          -0.7055    1.1590    0.0000 N.ar    1  LIG1       -0.3452
     13 H           2.3755   -0.6198    0.0000 H       1  LIG1        0.1683
     14 H           2.3919    1.2973    0.0000 H       1  LIG1        0.0808
     15 H           0.7235    2.2605    0.0000 H       1  LIG1        0.0653
     16 H          -2.3738    1.2972    0.0000 H       1  LIG1        0.1028
     17 H          -0.7055    2.2415    0.0000 H       1  LIG1        0.1668
@<TRIPOS>BOND
     1     1     2    2
     2     2     3   ar
     3     3     4   ar
     4     4     5   ar
     5     5     6   ar
     6     6     7   ar
     7     2     7   ar
     8     7     8   ar
     9     8     9    2
    10     8    10   ar
    11    10    11   ar
    12    11    12   ar
    13     6    12   ar
    14     3    13    1
    15     4    14    1
    16     5    15    1
    17    11    16    1
    18    12    17    1
