@<TRIPOS>MOLECULE
O=c1[nH]ncc2cc[nH]c12
 15 16 0 0 0
SMALL
GASTEIGER
Energy = 0

@<TRIPOS>ATOM
      1 O          -0.4611   -1.4368    0.0000 O.2     1  LIG1       -0.2642
      2 C          -0.4611   -0.6118    0.0000 C.ar    1  LIG1        0.2887
      3 N          -1.1756   -0.1993    0.0000 N.ar    1  LIG1       -0.2415
      4 N          -1.1756    0.6257    0.0000 N.ar    1  LIG1       -0.1787
      5 C          -0.4611    1.0382    0.0000 C.ar    1  LIG1        0.0571
      6 C           0.2534    0.6257    0.0000 C.ar    1  LIG1        0.0247
      7 C           0.2534   -0.1993    0.0000 C.ar    1  LIG1        0.1145
      8 N           1.0380   -0.4543    0.0000 N.ar    1  LIG1       -0.3564
      9 C           1.5229    0.2132    0.0000 C.ar    1  LIG1        0.0029
     10 C           1.0380    0.8806    0.0000 C.ar    1  LIG1       -0.0350
     11 H          -2.1131   -0.7406    0.0000 H       1  LIG1        0.1922
     12 H          -0.4611    2.1397    0.0000 H       1  LIG1        0.0854
     13 H           1.3725   -1.4838    0.0000 H       1  LIG1        0.1655
     14 H           2.6244    0.2132    0.0000 H       1  LIG1        0.0807
     15 H           1.3784    1.9282    0.0000 H       1  LIG1        0.0639
@<TRIPOS>BOND
     1     1     2    2
     2     2     3   ar
     3     3     4   ar
     4     4     5   ar
     5     5     6   ar
     6     6     7   ar
     7     2     7   ar
     8     7     8   ar
     9     8     9   ar
    10     9    10   ar
    11     6    10   ar
    12     3    11    1
    13     5    12    1
    14     8    13    1
    15     9    14    1
    16    10    15    1
