@<TRIPOS>MOLECULE
Cn1c(=O)[nH]c(=O)n2ccnc12
 18 19 0 0 0
SMALL
GASTEIGER
Energy = 0

@<TRIPOS>ATOM
      1 C           0.2497   -1.6003    0.0000 C.3     1  LIG1        0.0194
      2 N           0.2497   -0.7753    0.0000 N.ar    1  LIG1       -0.2667
      3 C           0.9641   -0.3628    0.0000 C.ar    1  LIG1        0.3328
      4 O           1.6786   -0.7753    0.0000 O.2     1  LIG1       -0.2463
      5 N           0.9641    0.4622    0.0000 N.ar    1  LIG1       -0.2596
      6 C           0.2497    0.8747    0.0000 C.ar    1  LIG1        0.3372
      7 O           0.2497    1.6997    0.0000 O.2     1  LIG1       -0.2460
      8 N          -0.4648    0.4622    0.0000 N.ar    1  LIG1       -0.2373
      9 C          -1.2494    0.7171    0.0000 C.ar    1  LIG1        0.0356
     10 C          -1.7343    0.0497    0.0000 C.ar    1  LIG1        0.0481
     11 N          -1.2494   -0.6178    0.0000 N.ar    1  LIG1       -0.2200
     12 C          -0.4648   -0.3628    0.0000 C.ar    1  LIG1        0.2227
     13 H           1.3243   -1.9808    0.0000 H       1  LIG1        0.0458
     14 H          -0.3088   -1.9950   -0.9121 H       1  LIG1        0.0458
     15 H          -0.2805   -1.9750    0.9370 H       1  LIG1        0.0458
     16 H           1.9016    1.0034    0.0000 H       1  LIG1        0.1749
     17 H          -1.5898    1.7647    0.0000 H       1  LIG1        0.0831
     18 H          -2.8358    0.0497    0.0000 H       1  LIG1        0.0846
@<TRIPOS>BOND
     1     1     2    1
     2     2     3   ar
     3     3     4    2
     4     3     5   ar
     5     5     6   ar
     6     6     7    2
     7     6     8   ar
     8     8     9   ar
     9     9    10   ar
    10    10    11   ar
    11    11    12   ar
    12     2    12   ar
    13     8    12   ar
    14     1    13    1
    15     1    14    1
    16     1    15    1
    17     5    16    1
    18     9    17    1
    19    10    18    1
