@<TRIPOS>MOLECULE
O=c1[nH]cnc2nscc12
 13 14 0 0 0
SMALL
GASTEIGER
Energy = 0

@<TRIPOS>ATOM
      1 O           0.6740   -1.4885    0.0000 O.2     1  LIG1       -0.2671
      2 C           0.6740   -0.6635    0.0000 C.ar    1  LIG1        0.2611
      3 N           1.3885   -0.2510    0.0000 N.ar    1  LIG1       -0.3128
      4 C           1.3885    0.5740    0.0000 C.ar    1  LIG1        0.0984
      5 N           0.6740    0.9865    0.0000 N.ar    1  LIG1       -0.2171
      6 C          -0.0405    0.5740    0.0000 C.ar    1  LIG1        0.1751
      7 N          -0.8251    0.8289    0.0000 N.ar    1  LIG1       -0.1904
      8 S          -1.3100    0.1615    0.0000 S.2     1  LIG1        0.0064
      9 C          -0.8251   -0.5060    0.0000 C.ar    1  LIG1        0.0102
     10 C          -0.0405   -0.2510    0.0000 C.ar    1  LIG1        0.0919
     11 H           2.3260   -0.7923    0.0000 H       1  LIG1        0.1698
     12 H           2.3424    1.1248    0.0000 H       1  LIG1        0.1028
     13 H          -1.1655   -1.5536    0.0000 H       1  LIG1        0.0717
@<TRIPOS>BOND
     1     1     2    2
     2     2     3   ar
     3     3     4   ar
     4     4     5   ar
     5     5     6   ar
     6     6     7   ar
     7     7     8   ar
     8     8     9   ar
     9     9    10   ar
    10     2    10   ar
    11     6    10   ar
    12     3    11    1
    13     4    12    1
    14     9    13    1
