@<TRIPOS>MOLECULE
c1nc2ncoc2[nH]1
 11 12 0 0 0
SMALL
GASTEIGER
Energy = 0

@<TRIPOS>ATOM
      1 N           0.7994   -0.6549    0.0000 N.ar    1  LIG1       -0.3137
      2 C           1.2843    0.0125    0.0000 C.ar    1  LIG1        0.0985
      3 N           0.7994    0.6800    0.0000 N.ar    1  LIG1       -0.2138
      4 C           0.0147    0.4250    0.0000 C.ar    1  LIG1        0.2180
      5 C           0.0147   -0.4000    0.0000 C.ar    1  LIG1        0.2459
      6 O          -0.7699   -0.6549    0.0000 O.2     1  LIG1       -0.4246
      7 C          -1.2548    0.0125    0.0000 C.ar    1  LIG1        0.1865
      8 N          -0.7699    0.6800    0.0000 N.ar    1  LIG1       -0.1950
      9 H           1.1339   -1.6844    0.0000 H       1  LIG1        0.1698
     10 H           2.3858    0.0125    0.0000 H       1  LIG1        0.1028
     11 H          -2.3563    0.0125    0.0000 H       1  LIG1        0.1256
@<TRIPOS>BOND
     1     1     2   ar
     2     2     3   ar
     3     3     4   ar
     4     4     5   ar
     5     1     5   ar
     6     5     6   ar
     7     6     7   ar
     8     7     8   ar
     9     4     8   ar
    10     1     9    1
    11     2    10    1
    12     7    11    1
