@<TRIPOS>MOLECULE
c1nnc2cc[nH]cc12
 14 15 0 0 0
SMALL
GASTEIGER
Energy = 0

@<TRIPOS>ATOM
      1 N           1.2874   -0.4170    0.0000 N.ar    1  LIG1       -0.3663
      2 C           1.2874    0.4080    0.0000 C.ar    1  LIG1        0.0037
      3 C           0.5730    0.8205    0.0000 C.ar    1  LIG1       -0.0179
      4 C          -0.1415    0.4080    0.0000 C.ar    1  LIG1        0.0975
      5 N          -0.9261    0.6630    0.0000 N.ar    1  LIG1       -0.1491
      6 N          -1.4111   -0.0045    0.0000 N.ar    1  LIG1       -0.1564
      7 C          -0.9261   -0.6719    0.0000 C.ar    1  LIG1        0.0605
      8 C          -0.1415   -0.4170    0.0000 C.ar    1  LIG1        0.0378
      9 C           0.5730   -0.8295    0.0000 C.ar    1  LIG1        0.0124
     10 H           2.2249   -0.9582    0.0000 H       1  LIG1        0.1648
     11 H           2.2413    0.9587    0.0000 H       1  LIG1        0.0807
     12 H           0.5730    1.9220    0.0000 H       1  LIG1        0.0654
     13 H          -1.2664   -1.7195    0.0000 H       1  LIG1        0.0855
     14 H           0.5730   -1.9310    0.0000 H       1  LIG1        0.0814
@<TRIPOS>BOND
     1     1     2   ar
     2     2     3   ar
     3     3     4   ar
     4     4     5   ar
     5     5     6   ar
     6     6     7   ar
     7     7     8   ar
     8     4     8   ar
     9     8     9   ar
    10     1     9   ar
    11     1    10    1
    12     2    11    1
    13     3    12    1
    14     7    13    1
    15     9    14    1
