@<TRIPOS>MOLECULE
Cn1sc2cnccc2c1=O
 17 18 0 0 0
SMALL
GASTEIGER
Energy = 0

@<TRIPOS>ATOM
      1 C           1.8459    0.0563    0.0000 C.3     1  LIG1        0.0221
      2 N           1.0209    0.0563    0.0000 N.ar    1  LIG1       -0.2810
      3 S           0.5360    0.7238    0.0000 S.2     1  LIG1       -0.0070
      4 C          -0.2486    0.4688    0.0000 C.ar    1  LIG1        0.0594
      5 C          -0.9631    0.8813    0.0000 C.ar    1  LIG1        0.0434
      6 N          -1.6775    0.4688    0.0000 N.ar    1  LIG1       -0.2621
      7 C          -1.6775   -0.3562    0.0000 C.ar    1  LIG1        0.0283
      8 C          -0.9631   -0.7687    0.0000 C.ar    1  LIG1       -0.0301
      9 C          -0.2486   -0.3562    0.0000 C.ar    1  LIG1        0.0579
     10 C           0.5360   -0.6111    0.0000 C.ar    1  LIG1        0.2655
     11 O           0.7910   -1.3957    0.0000 O.2     1  LIG1       -0.2665
     12 H           2.2264    1.1309    0.0000 H       1  LIG1        0.0463
     13 H           2.2406   -0.5022   -0.9121 H       1  LIG1        0.0463
     14 H           2.2206   -0.4739    0.9370 H       1  LIG1        0.0463
     15 H          -0.9631    1.9828    0.0000 H       1  LIG1        0.0841
     16 H          -2.6314   -0.9069    0.0000 H       1  LIG1        0.0830
     17 H          -0.9631   -1.8702    0.0000 H       1  LIG1        0.0641
@<TRIPOS>BOND
     1     1     2    1
     2     2     3   ar
     3     3     4   ar
     4     4     5   ar
     5     5     6   ar
     6     6     7   ar
     7     7     8   ar
     8     8     9   ar
     9     4     9   ar
    10     9    10   ar
    11     2    10   ar
    12    10    11    2
    13     1    12    1
    14     1    13    1
    15     1    14    1
    16     5    15    1
    17     7    16    1
    18     8    17    1
