@<TRIPOS>MOLECULE
O=c1nc2nncnc2c[nH]1
 14 15 0 0 0
SMALL
GASTEIGER
Energy = 0

@<TRIPOS>ATOM
      1 O           1.9184   -0.7234    0.0000 O.2     1  LIG1       -0.2447
      2 C           1.2040   -0.3109    0.0000 C.ar    1  LIG1        0.3479
      3 N           1.2040    0.5141    0.0000 N.ar    1  LIG1       -0.3108
      4 C           0.4895    0.9266    0.0000 C.ar    1  LIG1        0.0355
      5 C          -0.2250    0.5141    0.0000 C.ar    1  LIG1        0.1275
      6 N          -0.9395    0.9266    0.0000 N.ar    1  LIG1       -0.2290
      7 C          -1.6539    0.5141    0.0000 C.ar    1  LIG1        0.1391
      8 N          -1.6539   -0.3109    0.0000 N.ar    1  LIG1       -0.1357
      9 N          -0.9395   -0.7234    0.0000 N.ar    1  LIG1       -0.1259
     10 C          -0.2250   -0.3109    0.0000 C.ar    1  LIG1        0.2064
     11 N           0.4895   -0.7234    0.0000 N.ar    1  LIG1       -0.1700
     12 H           2.1415    1.0554    0.0000 H       1  LIG1        0.1699
     13 H           0.4895    2.0281    0.0000 H       1  LIG1        0.0831
     14 H          -2.6078    1.0648    0.0000 H       1  LIG1        0.1066
@<TRIPOS>BOND
     1     1     2    2
     2     2     3   ar
     3     3     4   ar
     4     4     5   ar
     5     5     6   ar
     6     6     7   ar
     7     7     8   ar
     8     8     9   ar
     9     9    10   ar
    10     5    10   ar
    11    10    11   ar
    12     2    11   ar
    13     3    12    1
    14     4    13    1
    15     7    14    1
