@<TRIPOS>MOLECULE
O=c1ncn2ncoc2n1
 12 13 0 0 0
SMALL
GASTEIGER
Energy = 0

@<TRIPOS>ATOM
      1 O           1.7666   -0.7182    0.0000 O.2     1  LIG1       -0.2424
      2 C           1.0522   -0.3057    0.0000 C.ar    1  LIG1        0.3734
      3 N           1.0522    0.5193    0.0000 N.ar    1  LIG1       -0.1797
      4 C           0.3377    0.9318    0.0000 C.ar    1  LIG1        0.1282
      5 N          -0.3768    0.5193    0.0000 N.ar    1  LIG1       -0.1691
      6 N          -1.1614    0.7742    0.0000 N.ar    1  LIG1       -0.1311
      7 C          -1.6463    0.1068    0.0000 C.ar    1  LIG1        0.2047
      8 O          -1.1614   -0.5607    0.0000 O.2     1  LIG1       -0.4100
      9 C          -0.3768   -0.3057    0.0000 C.ar    1  LIG1        0.3313
     10 N           0.3377   -0.7182    0.0000 N.ar    1  LIG1       -0.1374
     11 H           0.3377    2.0333    0.0000 H       1  LIG1        0.1051
     12 H          -2.7478    0.1068    0.0000 H       1  LIG1        0.1272
@<TRIPOS>BOND
     1     1     2    2
     2     2     3   ar
     3     3     4   ar
     4     4     5   ar
     5     5     6   ar
     6     6     7   ar
     7     7     8   ar
     8     8     9   ar
     9     5     9   ar
    10     9    10   ar
    11     2    10   ar
    12     4    11    1
    13     7    12    1
