@<TRIPOS>MOLECULE
c1nc2cnncc2o1
 12 13 0 0 0
SMALL
GASTEIGER
Energy = 0

@<TRIPOS>ATOM
      1 O           0.9405   -0.6562    0.0000 O.2     1  LIG1       -0.4408
      2 C           1.4254    0.0113    0.0000 C.ar    1  LIG1        0.1832
      3 N           0.9405    0.6787    0.0000 N.ar    1  LIG1       -0.2145
      4 C           0.1558    0.4238    0.0000 C.ar    1  LIG1        0.1305
      5 C          -0.5586    0.8363    0.0000 C.ar    1  LIG1        0.0790
      6 N          -1.2731    0.4238    0.0000 N.ar    1  LIG1       -0.1553
      7 N          -1.2731   -0.4012    0.0000 N.ar    1  LIG1       -0.1539
      8 C          -0.5586   -0.8137    0.0000 C.ar    1  LIG1        0.0943
      9 C           0.1558   -0.4012    0.0000 C.ar    1  LIG1        0.1763
     10 H           2.5269    0.0113    0.0000 H       1  LIG1        0.1255
     11 H          -0.5586    1.9378    0.0000 H       1  LIG1        0.0871
     12 H          -0.5586   -1.9152    0.0000 H       1  LIG1        0.0886
@<TRIPOS>BOND
     1     1     2   ar
     2     2     3   ar
     3     3     4   ar
     4     4     5   ar
     5     5     6   ar
     6     6     7   ar
     7     7     8   ar
     8     8     9   ar
     9     1     9   ar
    10     4     9   ar
    11     2    10    1
    12     5    11    1
    13     8    12    1
