@<TRIPOS>MOLECULE
c1cnc2ncncc2c1
 15 16 0 0 0
SMALL
GASTEIGER
Energy = 0

@<TRIPOS>ATOM
      1 C           1.4516   -0.4321    0.0000 C.ar    1  LIG1       -0.0428
      2 C           1.4516    0.3929    0.0000 C.ar    1  LIG1        0.0300
      3 N           0.7371    0.8054    0.0000 N.ar    1  LIG1       -0.2356
      4 C           0.0226    0.3929    0.0000 C.ar    1  LIG1        0.1628
      5 N          -0.6919    0.8054    0.0000 N.ar    1  LIG1       -0.2161
      6 C          -1.4063    0.3929    0.0000 C.ar    1  LIG1        0.1183
      7 N          -1.4063   -0.4321    0.0000 N.ar    1  LIG1       -0.2430
      8 C          -0.6919   -0.8446    0.0000 C.ar    1  LIG1        0.0400
      9 C           0.0226   -0.4321    0.0000 C.ar    1  LIG1        0.0373
     10 C           0.7371   -0.8446    0.0000 C.ar    1  LIG1       -0.0482
     11 H           2.4055   -0.9829    0.0000 H       1  LIG1        0.0633
     12 H           2.4055    0.9437    0.0000 H       1  LIG1        0.0830
     13 H          -2.3602    0.9436    0.0000 H       1  LIG1        0.1047
     14 H          -0.6919   -1.9461    0.0000 H       1  LIG1        0.0837
     15 H           0.7371   -1.9461    0.0000 H       1  LIG1        0.0626
@<TRIPOS>BOND
     1     1     2   ar
     2     2     3   ar
     3     3     4   ar
     4     4     5   ar
     5     5     6   ar
     6     6     7   ar
     7     7     8   ar
     8     8     9   ar
     9     4     9   ar
    10     9    10   ar
    11     1    10   ar
    12     1    11    1
    13     2    12    1
    14     6    13    1
    15     8    14    1
    16    10    15    1
