@<TRIPOS>MOLECULE
c1cn2cnnc2[nH]1
 12 13 0 0 0
SMALL
GASTEIGER
Energy = 0

@<TRIPOS>ATOM
      1 N           0.8090   -0.6497    0.0000 N.ar    1  LIG1       -0.3291
      2 C           1.2939    0.0177    0.0000 C.ar    1  LIG1        0.0215
      3 C           0.8090    0.6851    0.0000 C.ar    1  LIG1        0.0300
      4 N           0.0243    0.4302    0.0000 N.ar    1  LIG1       -0.2734
      5 C          -0.7603    0.6851    0.0000 C.ar    1  LIG1        0.1253
      6 N          -1.2452    0.0177    0.0000 N.ar    1  LIG1       -0.1357
      7 N          -0.7603   -0.6497    0.0000 N.ar    1  LIG1       -0.1107
      8 C           0.0243   -0.3948    0.0000 C.ar    1  LIG1        0.2335
      9 H           1.1435   -1.6792    0.0000 H       1  LIG1        0.1683
     10 H           2.3954    0.0177    0.0000 H       1  LIG1        0.0823
     11 H           1.1494    1.7327    0.0000 H       1  LIG1        0.0829
     12 H          -1.1007    1.7327    0.0000 H       1  LIG1        0.1052
@<TRIPOS>BOND
     1     1     2   ar
     2     2     3   ar
     3     3     4   ar
     4     4     5   ar
     5     5     6   ar
     6     6     7   ar
     7     7     8   ar
     8     1     8   ar
     9     4     8   ar
    10     1     9    1
    11     2    10    1
    12     3    11    1
    13     5    12    1
