@<TRIPOS>MOLECULE
O=c1ccc2cc[nH]c(=O)c2[nH]1
 18 19 0 0 0
SMALL
GASTEIGER
Energy = 0

@<TRIPOS>ATOM
      1 O           2.0061    0.5555    0.0000 O.2     1  LIG1       -0.2679
      2 C           1.2916    0.1430    0.0000 C.ar    1  LIG1        0.2493
      3 N           0.5771    0.5555    0.0000 N.ar    1  LIG1       -0.3178
      4 C          -0.1373    0.1430    0.0000 C.ar    1  LIG1        0.1143
      5 C          -0.1373   -0.6820    0.0000 C.ar    1  LIG1        0.0052
      6 C          -0.8518   -1.0945    0.0000 C.ar    1  LIG1       -0.0364
      7 C          -1.5663   -0.6820    0.0000 C.ar    1  LIG1        0.0056
      8 N          -1.5663    0.1430    0.0000 N.ar    1  LIG1       -0.3274
      9 C          -0.8518    0.5555    0.0000 C.ar    1  LIG1        0.2728
     10 O          -0.8518    1.3805    0.0000 O.2     1  LIG1       -0.2656
     11 C           0.5771   -1.0945    0.0000 C.ar    1  LIG1       -0.0473
     12 C           1.2916   -0.6820    0.0000 C.ar    1  LIG1        0.0034
     13 H           0.5771    1.6380    0.0000 H       1  LIG1        0.1691
     14 H          -0.8518   -2.1960    0.0000 H       1  LIG1        0.0639
     15 H          -2.5202   -1.2328    0.0000 H       1  LIG1        0.0808
     16 H          -2.5038    0.6843    0.0000 H       1  LIG1        0.1684
     17 H           0.5771   -2.1960    0.0000 H       1  LIG1        0.0626
     18 H           2.2455   -1.2328    0.0000 H       1  LIG1        0.0672
@<TRIPOS>BOND
     1     1     2    2
     2     2     3   ar
     3     3     4   ar
     4     4     5   ar
     5     5     6   ar
     6     6     7   ar
     7     7     8   ar
     8     8     9   ar
     9     4     9   ar
    10     9    10    2
    11     5    11   ar
    12    11    12   ar
    13     2    12   ar
    14     3    13    1
    15     6    14    1
    16     7    15    1
    17     8    16    1
    18    11    17    1
    19    12    18    1
