@<TRIPOS>MOLECULE
c1noc2nnccc12
 12 13 0 0 0
SMALL
GASTEIGER
Energy = 0

@<TRIPOS>ATOM
      1 O           0.9202   -0.6240    0.0000 O.2     1  LIG1       -0.3330
      2 N           1.4051    0.0435    0.0000 N.ar    1  LIG1       -0.0835
      3 C           0.9202    0.7109    0.0000 C.ar    1  LIG1        0.0795
      4 C           0.1356    0.4560    0.0000 C.ar    1  LIG1        0.0635
      5 C          -0.5789    0.8685    0.0000 C.ar    1  LIG1       -0.0279
      6 C          -1.2934    0.4560    0.0000 C.ar    1  LIG1        0.0508
      7 N          -1.2934   -0.3690    0.0000 N.ar    1  LIG1       -0.1541
      8 N          -0.5789   -0.7815    0.0000 N.ar    1  LIG1       -0.1080
      9 C           0.1356   -0.3690    0.0000 C.ar    1  LIG1        0.2767
     10 H           1.2606    1.7585    0.0000 H       1  LIG1        0.0871
     11 H          -0.5789    1.9700    0.0000 H       1  LIG1        0.0641
     12 H          -2.2473    1.0068    0.0000 H       1  LIG1        0.0848
@<TRIPOS>BOND
     1     1     2   ar
     2     2     3   ar
     3     3     4   ar
     4     4     5   ar
     5     5     6   ar
     6     6     7   ar
     7     7     8   ar
     8     8     9   ar
     9     1     9   ar
    10     4     9   ar
    11     3    10    1
    12     5    11    1
    13     6    12    1
