@<TRIPOS>MOLECULE
c1nsc2cccnc12
 13 14 0 0 0
SMALL
GASTEIGER
Energy = 0

@<TRIPOS>ATOM
      1 S           0.7888   -0.5786    0.0000 S.2     1  LIG1        0.0132
      2 N           1.2737    0.0888    0.0000 N.ar    1  LIG1       -0.2160
      3 C           0.7888    0.7563    0.0000 C.ar    1  LIG1        0.0626
      4 C           0.0041    0.5013    0.0000 C.ar    1  LIG1        0.0976
      5 N          -0.7103    0.9138    0.0000 N.ar    1  LIG1       -0.2529
      6 C          -1.4248    0.5013    0.0000 C.ar    1  LIG1        0.0284
      7 C          -1.4248   -0.3237    0.0000 C.ar    1  LIG1       -0.0425
      8 C          -0.7103   -0.7362    0.0000 C.ar    1  LIG1       -0.0430
      9 C           0.0041   -0.3237    0.0000 C.ar    1  LIG1        0.0576
     10 H           1.1292    1.8039    0.0000 H       1  LIG1        0.0858
     11 H          -2.3787    1.0521    0.0000 H       1  LIG1        0.0830
     12 H          -2.3787   -0.8745    0.0000 H       1  LIG1        0.0633
     13 H          -0.7103   -1.8377    0.0000 H       1  LIG1        0.0630
@<TRIPOS>BOND
     1     1     2   ar
     2     2     3   ar
     3     3     4   ar
     4     4     5   ar
     5     5     6   ar
     6     6     7   ar
     7     7     8   ar
     8     8     9   ar
     9     1     9   ar
    10     4     9   ar
    11     3    10    1
    12     6    11    1
    13     7    12    1
    14     8    13    1
