@<TRIPOS>MOLECULE
Cn1cnc2nccc2c1
 17 18 0 0 0
SMALL
GASTEIGER
Energy = 0

@<TRIPOS>ATOM
      1 C           1.7798   -0.7635    0.0000 C.3     1  LIG1        0.0127
      2 N           1.0653   -0.3510    0.0000 N.ar    1  LIG1       -0.3406
      3 C           1.0653    0.4740    0.0000 C.ar    1  LIG1        0.0980
      4 N           0.3509    0.8865    0.0000 N.ar    1  LIG1       -0.2178
      5 C          -0.3636    0.4740    0.0000 C.ar    1  LIG1        0.1627
      6 N          -1.1482    0.7289    0.0000 N.ar    1  LIG1       -0.2356
      7 C          -1.6331    0.0615    0.0000 C.ar    1  LIG1        0.0307
      8 C          -1.1482   -0.6060    0.0000 C.ar    1  LIG1       -0.0315
      9 C          -0.3636   -0.3510    0.0000 C.ar    1  LIG1        0.0367
     10 C           0.3509   -0.7635    0.0000 C.ar    1  LIG1        0.0163
     11 H           2.6466   -0.0231    0.0000 H       1  LIG1        0.0456
     12 H           1.8424   -1.4445   -0.9121 H       1  LIG1        0.0456
     13 H           1.8392   -1.4101    0.9370 H       1  LIG1        0.0456
     14 H           2.0192    1.0247    0.0000 H       1  LIG1        0.1029
     15 H          -2.7346    0.0615    0.0000 H       1  LIG1        0.0830
     16 H          -1.4886   -1.6536    0.0000 H       1  LIG1        0.0640
     17 H           0.3509   -1.8650    0.0000 H       1  LIG1        0.0816
@<TRIPOS>BOND
     1     1     2    1
     2     2     3   ar
     3     3     4   ar
     4     4     5   ar
     5     5     6   ar
     6     6     7   ar
     7     7     8   ar
     8     8     9   ar
     9     5     9   ar
    10     9    10   ar
    11     2    10   ar
    12     1    11    1
    13     1    12    1
    14     1    13    1
    15     3    14    1
    16     7    15    1
    17     8    16    1
    18    10    17    1
