@<TRIPOS>MOLECULE
c1nnn2ccccc12
 14 15 0 0 0
SMALL
GASTEIGER
Energy = 0

@<TRIPOS>ATOM
      1 C           1.3124    0.3936    0.0000 C.ar    1  LIG1       -0.0435
      2 C           0.5980    0.8061    0.0000 C.ar    1  LIG1        0.0314
      3 N          -0.1165    0.3936    0.0000 N.ar    1  LIG1       -0.2201
      4 N          -0.9011    0.6485    0.0000 N.ar    1  LIG1       -0.0608
      5 N          -1.3861   -0.0189    0.0000 N.ar    1  LIG1       -0.1370
      6 C          -0.9011   -0.6863    0.0000 C.ar    1  LIG1        0.0770
      7 C          -0.1165   -0.4314    0.0000 C.ar    1  LIG1        0.0867
      8 C           0.5980   -0.8439    0.0000 C.ar    1  LIG1       -0.0346
      9 C           1.3124   -0.4314    0.0000 C.ar    1  LIG1       -0.0583
     10 H           2.2663    0.9443    0.0000 H       1  LIG1        0.0633
     11 H           0.5980    1.9076    0.0000 H       1  LIG1        0.0831
     12 H          -1.2414   -1.7339    0.0000 H       1  LIG1        0.0870
     13 H           0.5980   -1.9454    0.0000 H       1  LIG1        0.0639
     14 H           2.2663   -0.9821    0.0000 H       1  LIG1        0.0619
@<TRIPOS>BOND
     1     1     2   ar
     2     2     3   ar
     3     3     4   ar
     4     4     5   ar
     5     5     6   ar
     6     6     7   ar
     7     3     7   ar
     8     7     8   ar
     9     8     9   ar
    10     1     9   ar
    11     1    10    1
    12     2    11    1
    13     6    12    1
    14     8    13    1
    15     9    14    1
