@<TRIPOS>MOLECULE
O=c1ncnc2[nH][nH]cc12
 14 15 0 0 0
SMALL
GASTEIGER
Energy = 0

@<TRIPOS>ATOM
      1 O           0.4949   -1.4664    0.0000 O.2     1  LIG1       -0.2650
      2 C           0.4949   -0.6414    0.0000 C.ar    1  LIG1        0.2838
      3 N           1.2094   -0.2289    0.0000 N.ar    1  LIG1       -0.1969
      4 C           1.2094    0.5961    0.0000 C.ar    1  LIG1        0.1223
      5 N           0.4949    1.0086    0.0000 N.ar    1  LIG1       -0.2163
      6 C          -0.2196    0.5961    0.0000 C.ar    1  LIG1        0.1609
      7 N          -1.0042    0.8510    0.0000 N.ar    1  LIG1       -0.2830
      8 N          -1.4891    0.1836    0.0000 N.ar    1  LIG1       -0.3048
      9 C          -1.0042   -0.4839    0.0000 C.ar    1  LIG1        0.0348
     10 C          -0.2196   -0.2289    0.0000 C.ar    1  LIG1        0.1020
     11 H           2.1633    1.1469    0.0000 H       1  LIG1        0.1049
     12 H          -1.3387    1.8805    0.0000 H       1  LIG1        0.1883
     13 H          -2.5716    0.1836    0.0000 H       1  LIG1        0.1861
     14 H          -1.3446   -1.5315    0.0000 H       1  LIG1        0.0831
@<TRIPOS>BOND
     1     1     2    2
     2     2     3   ar
     3     3     4   ar
     4     4     5   ar
     5     5     6   ar
     6     6     7   ar
     7     7     8   ar
     8     8     9   ar
     9     9    10   ar
    10     2    10   ar
    11     6    10   ar
    12     4    11    1
    13     7    12    1
    14     8    13    1
    15     9    14    1
