@<TRIPOS>MOLECULE
c1nc2nnccc2s1
 12 13 0 0 0
SMALL
GASTEIGER
Energy = 0

@<TRIPOS>ATOM
      1 S           0.8172   -0.5960    0.0000 S.2     1  LIG1       -0.0737
      2 C           1.3021    0.0714    0.0000 C.ar    1  LIG1        0.0677
      3 N           0.8172    0.7389    0.0000 N.ar    1  LIG1       -0.2267
      4 C           0.0326    0.4839    0.0000 C.ar    1  LIG1        0.1890
      5 N          -0.6819    0.8964    0.0000 N.ar    1  LIG1       -0.1286
      6 N          -1.3964    0.4839    0.0000 N.ar    1  LIG1       -0.1556
      7 C          -1.3964   -0.3411    0.0000 C.ar    1  LIG1        0.0512
      8 C          -0.6819   -0.7536    0.0000 C.ar    1  LIG1       -0.0245
      9 C           0.0326   -0.3411    0.0000 C.ar    1  LIG1        0.0609
     10 H           2.4036    0.0714    0.0000 H       1  LIG1        0.0908
     11 H          -2.3503   -0.8919    0.0000 H       1  LIG1        0.0848
     12 H          -0.6819   -1.8551    0.0000 H       1  LIG1        0.0645
@<TRIPOS>BOND
     1     1     2   ar
     2     2     3   ar
     3     3     4   ar
     4     4     5   ar
     5     5     6   ar
     6     6     7   ar
     7     7     8   ar
     8     8     9   ar
     9     1     9   ar
    10     4     9   ar
    11     2    10    1
    12     7    11    1
    13     8    12    1
