@<TRIPOS>MOLECULE
Cn1ncc2c[nH]cc2c1=O
 18 19 0 0 0
SMALL
GASTEIGER
Energy = 0

@<TRIPOS>ATOM
      1 C           1.7371   -0.5695    0.0000 C.3     1  LIG1        0.0340
      2 N           1.0226   -0.1570    0.0000 N.ar    1  LIG1       -0.2321
      3 N           1.0226    0.6680    0.0000 N.ar    1  LIG1       -0.1762
      4 C           0.3081    1.0805    0.0000 C.ar    1  LIG1        0.0573
      5 C          -0.4063    0.6680    0.0000 C.ar    1  LIG1        0.0244
      6 C          -1.1910    0.9230    0.0000 C.ar    1  LIG1        0.0111
      7 N          -1.6759    0.2555    0.0000 N.ar    1  LIG1       -0.3657
      8 C          -1.1910   -0.4119    0.0000 C.ar    1  LIG1        0.0147
      9 C          -0.4063   -0.1570    0.0000 C.ar    1  LIG1        0.0667
     10 C           0.3081   -0.5695    0.0000 C.ar    1  LIG1        0.2762
     11 O           0.3081   -1.3945    0.0000 O.2     1  LIG1       -0.2655
     12 H           2.6039    0.1709    0.0000 H       1  LIG1        0.0474
     13 H           1.7997   -1.2505   -0.9121 H       1  LIG1        0.0474
     14 H           1.7965   -1.2161    0.9370 H       1  LIG1        0.0474
     15 H           0.3081    2.1820    0.0000 H       1  LIG1        0.0854
     16 H          -1.5314    1.9706    0.0000 H       1  LIG1        0.0813
     17 H          -2.7584    0.2555    0.0000 H       1  LIG1        0.1648
     18 H          -1.5314   -1.4595    0.0000 H       1  LIG1        0.0815
@<TRIPOS>BOND
     1     1     2    1
     2     2     3   ar
     3     3     4   ar
     4     4     5   ar
     5     5     6   ar
     6     6     7   ar
     7     7     8   ar
     8     8     9   ar
     9     5     9   ar
    10     9    10   ar
    11     2    10   ar
    12    10    11    2
    13     1    12    1
    14     1    13    1
    15     1    14    1
    16     4    15    1
    17     6    16    1
    18     7    17    1
    19     8    18    1
