@<TRIPOS>MOLECULE
O=c1ccn2cccc2[nH]1
 16 17 0 0 0
SMALL
GASTEIGER
Energy = 0

@<TRIPOS>ATOM
      1 O           1.7288    0.7155    0.0000 O.2     1  LIG1       -0.2678
      2 C           1.0143    0.3030    0.0000 C.ar    1  LIG1        0.2516
      3 N           0.2998    0.7155    0.0000 N.ar    1  LIG1       -0.3085
      4 C          -0.4146    0.3030    0.0000 C.ar    1  LIG1        0.1179
      5 C          -1.1993    0.5580    0.0000 C.ar    1  LIG1       -0.0192
      6 C          -1.6842   -0.1095    0.0000 C.ar    1  LIG1       -0.0418
      7 C          -1.1993   -0.7769    0.0000 C.ar    1  LIG1        0.0112
      8 N          -0.4146   -0.5220    0.0000 N.ar    1  LIG1       -0.3093
      9 C           0.2998   -0.9345    0.0000 C.ar    1  LIG1        0.0162
     10 C           1.0143   -0.5220    0.0000 C.ar    1  LIG1        0.0193
     11 H           0.2998    1.7980    0.0000 H       1  LIG1        0.1703
     12 H          -1.5397    1.6056    0.0000 H       1  LIG1        0.0654
     13 H          -2.7857   -0.1095    0.0000 H       1  LIG1        0.0633
     14 H          -1.5397   -1.8245    0.0000 H       1  LIG1        0.0813
     15 H           0.2998   -2.0360    0.0000 H       1  LIG1        0.0815
     16 H           1.9682   -1.0728    0.0000 H       1  LIG1        0.0686
@<TRIPOS>BOND
     1     1     2    2
     2     2     3   ar
     3     3     4   ar
     4     4     5   ar
     5     5     6   ar
     6     6     7   ar
     7     7     8   ar
     8     4     8   ar
     9     8     9   ar
    10     9    10   ar
    11     2    10   ar
    12     3    11    1
    13     5    12    1
    14     6    13    1
    15     7    14    1
    16     9    15    1
    17    10    16    1
