@<TRIPOS>MOLECULE
Cn1cncc2nccc12
 17 18 0 0 0
SMALL
GASTEIGER
Energy = 0

@<TRIPOS>ATOM
      1 C           0.4870   -1.4969    0.0000 C.3     1  LIG1        0.0133
      2 N           0.4870   -0.6719    0.0000 N.ar    1  LIG1       -0.3331
      3 C           1.2015   -0.2594    0.0000 C.ar    1  LIG1        0.0961
      4 N           1.2015    0.5656    0.0000 N.ar    1  LIG1       -0.2433
      5 C           0.4870    0.9781    0.0000 C.ar    1  LIG1        0.0566
      6 C          -0.2275    0.5656    0.0000 C.ar    1  LIG1        0.1053
      7 N          -1.0121    0.8206    0.0000 N.ar    1  LIG1       -0.2519
      8 C          -1.4970    0.1531    0.0000 C.ar    1  LIG1        0.0304
      9 C          -1.0121   -0.5143    0.0000 C.ar    1  LIG1       -0.0179
     10 C          -0.2275   -0.2594    0.0000 C.ar    1  LIG1        0.0712
     11 H           1.5616   -1.8774    0.0000 H       1  LIG1        0.0456
     12 H          -0.0715   -1.8916   -0.9121 H       1  LIG1        0.0456
     13 H          -0.0432   -1.8716    0.9370 H       1  LIG1        0.0456
     14 H           2.1554   -0.8102    0.0000 H       1  LIG1        0.1029
     15 H           0.4870    2.0796    0.0000 H       1  LIG1        0.0852
     16 H          -2.5985    0.1531    0.0000 H       1  LIG1        0.0830
     17 H          -1.3525   -1.5619    0.0000 H       1  LIG1        0.0654
@<TRIPOS>BOND
     1     1     2    1
     2     2     3   ar
     3     3     4   ar
     4     4     5   ar
     5     5     6   ar
     6     6     7   ar
     7     7     8   ar
     8     8     9   ar
     9     9    10   ar
    10     2    10   ar
    11     6    10   ar
    12     1    11    1
    13     1    12    1
    14     1    13    1
    15     3    14    1
    16     5    15    1
    17     8    16    1
    18     9    17    1
