@<TRIPOS>MOLECULE
Cn1cc2ncnc2cn1
 16 17 0 0 0
SMALL
GASTEIGER
Energy = 0

@<TRIPOS>ATOM
      1 C           1.7866    0.7476    0.0000 C.3     1  LIG1        0.0303
      2 N           1.0721    0.3351    0.0000 N.ar    1  LIG1       -0.2724
      3 C           0.3576    0.7476    0.0000 C.ar    1  LIG1        0.0512
      4 C          -0.3568    0.3351    0.0000 C.ar    1  LIG1        0.1101
      5 N          -1.1415    0.5901    0.0000 N.ar    1  LIG1       -0.2323
      6 C          -1.6264   -0.0774    0.0000 C.ar    1  LIG1        0.1175
      7 N          -1.1415   -0.7448    0.0000 N.ar    1  LIG1       -0.2323
      8 C          -0.3568   -0.4899    0.0000 C.ar    1  LIG1        0.1120
      9 C           0.3576   -0.9024    0.0000 C.ar    1  LIG1        0.0754
     10 N           1.0721   -0.4899    0.0000 N.ar    1  LIG1       -0.1777
     11 H           1.5789    1.8685    0.0000 H       1  LIG1        0.0473
     12 H           2.4076    0.4613   -0.9121 H       1  LIG1        0.0473
     13 H           2.3763    0.4758    0.9370 H       1  LIG1        0.0473
     14 H           0.3576    1.8491    0.0000 H       1  LIG1        0.0848
     15 H          -2.7279   -0.0774    0.0000 H       1  LIG1        0.1047
     16 H           0.3576   -2.0039    0.0000 H       1  LIG1        0.0870
@<TRIPOS>BOND
     1     1     2    1
     2     2     3   ar
     3     3     4   ar
     4     4     5   ar
     5     5     6   ar
     6     6     7   ar
     7     7     8   ar
     8     4     8   ar
     9     8     9   ar
    10     9    10   ar
    11     2    10   ar
    12     1    11    1
    13     1    12    1
    14     1    13    1
    15     3    14    1
    16     6    15    1
    17     9    16    1
