@<TRIPOS>MOLECULE
c1cc2c[nH]cc2[nH]1
 14 15 0 0 0
SMALL
GASTEIGER
Energy = 0

@<TRIPOS>ATOM
      1 N           1.2599   -0.0133    0.0000 N.ar    1  LIG1       -0.3647
      2 C           0.7749    0.6541    0.0000 C.ar    1  LIG1        0.0259
      3 C          -0.0097    0.3992    0.0000 C.ar    1  LIG1        0.0640
      4 N          -0.7943    0.6541    0.0000 N.ar    1  LIG1       -0.3595
      5 C          -1.2792   -0.0133    0.0000 C.ar    1  LIG1        0.0028
      6 C          -0.7943   -0.6808    0.0000 C.ar    1  LIG1       -0.0352
      7 C          -0.0097   -0.4258    0.0000 C.ar    1  LIG1        0.0170
      8 C           0.7749   -0.6808    0.0000 C.ar    1  LIG1        0.0109
      9 H           2.3424   -0.0133    0.0000 H       1  LIG1        0.1648
     10 H           1.1152    1.7017    0.0000 H       1  LIG1        0.0828
     11 H          -1.1288    1.6836    0.0000 H       1  LIG1        0.1654
     12 H          -2.3807   -0.0133    0.0000 H       1  LIG1        0.0807
     13 H          -1.1347   -1.7284    0.0000 H       1  LIG1        0.0639
     14 H           1.1152   -1.7284    0.0000 H       1  LIG1        0.0813
@<TRIPOS>BOND
     1     1     2   ar
     2     2     3   ar
     3     3     4   ar
     4     4     5   ar
     5     5     6   ar
     6     6     7   ar
     7     3     7   ar
     8     7     8   ar
     9     1     8   ar
    10     1     9    1
    11     2    10    1
    12     4    11    1
    13     5    12    1
    14     6    13    1
    15     8    14    1
