@<TRIPOS>MOLECULE
O=c1ccnc2cn[nH]n12
 14 15 0 0 0
SMALL
GASTEIGER
Energy = 0

@<TRIPOS>ATOM
      1 O           0.5165   -1.4463    0.0000 O.2     1  LIG1       -0.2658
      2 C           0.5165   -0.6213    0.0000 C.ar    1  LIG1        0.2742
      3 C           1.2310   -0.2088    0.0000 C.ar    1  LIG1        0.0229
      4 C           1.2310    0.6162    0.0000 C.ar    1  LIG1        0.0352
      5 N           0.5165    1.0287    0.0000 N.ar    1  LIG1       -0.2346
      6 C          -0.1980    0.6162    0.0000 C.ar    1  LIG1        0.1771
      7 C          -0.9826    0.8712    0.0000 C.ar    1  LIG1        0.0934
      8 N          -1.4675    0.2037    0.0000 N.ar    1  LIG1       -0.1623
      9 N          -0.9826   -0.4637    0.0000 N.ar    1  LIG1       -0.2082
     10 N          -0.1980   -0.2088    0.0000 N.ar    1  LIG1       -0.1835
     11 H           2.1849   -0.7596    0.0000 H       1  LIG1        0.0687
     12 H           2.1849    1.1670    0.0000 H       1  LIG1        0.0832
     13 H          -1.3230    1.9188    0.0000 H       1  LIG1        0.0886
     14 H          -1.3171   -1.4932    0.0000 H       1  LIG1        0.2111
@<TRIPOS>BOND
     1     1     2    2
     2     2     3   ar
     3     3     4   ar
     4     4     5   ar
     5     5     6   ar
     6     6     7   ar
     7     7     8   ar
     8     8     9   ar
     9     9    10   ar
    10     2    10   ar
    11     6    10   ar
    12     3    11    1
    13     4    12    1
    14     7    13    1
    15     9    14    1
