@<TRIPOS>MOLECULE
c1ncc2[nH]ccnc12
 14 15 0 0 0
SMALL
GASTEIGER
Energy = 0

@<TRIPOS>ATOM
      1 N           0.5592   -0.8250    0.0000 N.ar    1  LIG1       -0.3569
      2 C           1.2737   -0.4125    0.0000 C.ar    1  LIG1        0.0204
      3 C           1.2737    0.4125    0.0000 C.ar    1  LIG1        0.0443
      4 N           0.5592    0.8250    0.0000 N.ar    1  LIG1       -0.2505
      5 C          -0.1552    0.4125    0.0000 C.ar    1  LIG1        0.1066
      6 C          -0.9399    0.6674    0.0000 C.ar    1  LIG1        0.0550
      7 N          -1.4248   -0.0000    0.0000 N.ar    1  LIG1       -0.2590
      8 C          -0.9399   -0.6674    0.0000 C.ar    1  LIG1        0.0530
      9 C          -0.1552   -0.4125    0.0000 C.ar    1  LIG1        0.0847
     10 H           0.5592   -1.9075    0.0000 H       1  LIG1        0.1655
     11 H           2.2276   -0.9633    0.0000 H       1  LIG1        0.0822
     12 H           2.2276    0.9633    0.0000 H       1  LIG1        0.0844
     13 H          -1.2803    1.7150    0.0000 H       1  LIG1        0.0852
     14 H          -1.2803   -1.7150    0.0000 H       1  LIG1        0.0851
@<TRIPOS>BOND
     1     1     2   ar
     2     2     3   ar
     3     3     4   ar
     4     4     5   ar
     5     5     6   ar
     6     6     7   ar
     7     7     8   ar
     8     8     9   ar
     9     1     9   ar
    10     5     9   ar
    11     1    10    1
    12     2    11    1
    13     3    12    1
    14     6    13    1
    15     8    14    1
