@<TRIPOS>MOLECULE
Cn1sc2ccccc2c1=O
 18 19 0 0 0
SMALL
GASTEIGER
Energy = 0

@<TRIPOS>ATOM
      1 C           1.8248    0.0623    0.0000 C.3     1  LIG1        0.0221
      2 N           0.9998    0.0623    0.0000 N.ar    1  LIG1       -0.2810
      3 S           0.5148    0.7297    0.0000 S.2     1  LIG1       -0.0085
      4 C          -0.2698    0.4748    0.0000 C.ar    1  LIG1        0.0414
      5 C          -0.9842    0.8873    0.0000 C.ar    1  LIG1       -0.0459
      6 C          -1.6987    0.4748    0.0000 C.ar    1  LIG1       -0.0606
      7 C          -1.6987   -0.3502    0.0000 C.ar    1  LIG1       -0.0610
      8 C          -0.9842   -0.7627    0.0000 C.ar    1  LIG1       -0.0483
      9 C          -0.2698   -0.3502    0.0000 C.ar    1  LIG1        0.0550
     10 C           0.5148   -0.6052    0.0000 C.ar    1  LIG1        0.2654
     11 O           0.7698   -1.3898    0.0000 O.2     1  LIG1       -0.2665
     12 H           2.2053    1.1369    0.0000 H       1  LIG1        0.0463
     13 H           2.2195   -0.4962   -0.9121 H       1  LIG1        0.0463
     14 H           2.1995   -0.4679    0.9370 H       1  LIG1        0.0463
     15 H          -0.9842    1.9888    0.0000 H       1  LIG1        0.0629
     16 H          -2.6526    1.0256    0.0000 H       1  LIG1        0.0618
     17 H          -2.6526   -0.9010    0.0000 H       1  LIG1        0.0618
     18 H          -0.9842   -1.8642    0.0000 H       1  LIG1        0.0625
@<TRIPOS>BOND
     1     1     2    1
     2     2     3   ar
     3     3     4   ar
     4     4     5   ar
     5     5     6   ar
     6     6     7   ar
     7     7     8   ar
     8     8     9   ar
     9     4     9   ar
    10     9    10   ar
    11     2    10   ar
    12    10    11    2
    13     1    12    1
    14     1    13    1
    15     1    14    1
    16     5    15    1
    17     6    16    1
    18     7    17    1
    19     8    18    1
