@<TRIPOS>MOLECULE
c1ncn2cnncc12
 13 14 0 0 0
SMALL
GASTEIGER
Energy = 0

@<TRIPOS>ATOM
      1 C           0.9618   -0.6603    0.0000 C.ar    1  LIG1        0.1016
      2 N           1.4467    0.0071    0.0000 N.ar    1  LIG1       -0.2430
      3 C           0.9618    0.6745    0.0000 C.ar    1  LIG1        0.0547
      4 C           0.1771    0.4196    0.0000 C.ar    1  LIG1        0.0867
      5 C          -0.5373    0.8321    0.0000 C.ar    1  LIG1        0.0753
      6 N          -1.2518    0.4196    0.0000 N.ar    1  LIG1       -0.1542
      7 N          -1.2518   -0.4054    0.0000 N.ar    1  LIG1       -0.1391
      8 C          -0.5373   -0.8179    0.0000 C.ar    1  LIG1        0.1241
      9 N           0.1771   -0.4054    0.0000 N.ar    1  LIG1       -0.2866
     10 H           1.3022   -1.7079    0.0000 H       1  LIG1        0.1032
     11 H           1.3022    1.7221    0.0000 H       1  LIG1        0.0852
     12 H          -0.5373    1.9336    0.0000 H       1  LIG1        0.0870
     13 H          -0.5373   -1.9194    0.0000 H       1  LIG1        0.1051
@<TRIPOS>BOND
     1     1     2   ar
     2     2     3   ar
     3     3     4   ar
     4     4     5   ar
     5     5     6   ar
     6     6     7   ar
     7     7     8   ar
     8     8     9   ar
     9     1     9   ar
    10     4     9   ar
    11     1    10    1
    12     3    11    1
    13     5    12    1
    14     8    13    1
