@<TRIPOS>MOLECULE
O=c1cc2cccnc2c[nH]1
 17 18 0 0 0
SMALL
GASTEIGER
Energy = 0

@<TRIPOS>ATOM
      1 O           1.8885   -0.7484    0.0000 O.2     1  LIG1       -0.2679
      2 C           1.1740   -0.3359    0.0000 C.ar    1  LIG1        0.2494
      3 N           1.1740    0.4891    0.0000 N.ar    1  LIG1       -0.3270
      4 C           0.4595    0.9016    0.0000 C.ar    1  LIG1        0.0309
      5 C          -0.2550    0.4891    0.0000 C.ar    1  LIG1        0.0871
      6 N          -0.9694    0.9016    0.0000 N.ar    1  LIG1       -0.2535
      7 C          -1.6839    0.4891    0.0000 C.ar    1  LIG1        0.0283
      8 C          -1.6839   -0.3359    0.0000 C.ar    1  LIG1       -0.0430
      9 C          -0.9694   -0.7484    0.0000 C.ar    1  LIG1       -0.0509
     10 C          -0.2550   -0.3359    0.0000 C.ar    1  LIG1        0.0069
     11 C           0.4595   -0.7484    0.0000 C.ar    1  LIG1        0.0119
     12 H           2.1115    1.0304    0.0000 H       1  LIG1        0.1684
     13 H           0.4595    2.0031    0.0000 H       1  LIG1        0.0829
     14 H          -2.6378    1.0399    0.0000 H       1  LIG1        0.0830
     15 H          -2.6378   -0.8867    0.0000 H       1  LIG1        0.0633
     16 H          -0.9694   -1.8499    0.0000 H       1  LIG1        0.0625
     17 H           0.4595   -1.8499    0.0000 H       1  LIG1        0.0678
@<TRIPOS>BOND
     1     1     2    2
     2     2     3   ar
     3     3     4   ar
     4     4     5   ar
     5     5     6   ar
     6     6     7   ar
     7     7     8   ar
     8     8     9   ar
     9     9    10   ar
    10     5    10   ar
    11    10    11   ar
    12     2    11   ar
    13     3    12    1
    14     4    13    1
    15     7    14    1
    16     8    15    1
    17     9    16    1
    18    11    17    1
