@<TRIPOS>MOLECULE
c1ncn2nccnc12
 13 14 0 0 0
SMALL
GASTEIGER
Energy = 0

@<TRIPOS>ATOM
      1 C           1.2764    0.4054    0.0000 C.ar    1  LIG1        0.0665
      2 N           0.5619    0.8179    0.0000 N.ar    1  LIG1       -0.1706
      3 N          -0.1526    0.4054    0.0000 N.ar    1  LIG1       -0.2022
      4 C          -0.9372    0.6603    0.0000 C.ar    1  LIG1        0.1198
      5 N          -1.4221   -0.0071    0.0000 N.ar    1  LIG1       -0.2399
      6 C          -0.9372   -0.6745    0.0000 C.ar    1  LIG1        0.0735
      7 C          -0.1526   -0.4196    0.0000 C.ar    1  LIG1        0.1739
      8 N           0.5619   -0.8321    0.0000 N.ar    1  LIG1       -0.2333
      9 C           1.2764   -0.4196    0.0000 C.ar    1  LIG1        0.0497
     10 H           2.2303    0.9562    0.0000 H       1  LIG1        0.0863
     11 H          -1.2776    1.7079    0.0000 H       1  LIG1        0.1048
     12 H          -1.2776   -1.7221    0.0000 H       1  LIG1        0.0868
     13 H           2.2303   -0.9704    0.0000 H       1  LIG1        0.0846
@<TRIPOS>BOND
     1     1     2   ar
     2     2     3   ar
     3     3     4   ar
     4     4     5   ar
     5     5     6   ar
     6     6     7   ar
     7     3     7   ar
     8     7     8   ar
     9     8     9   ar
    10     1     9   ar
    11     1    10    1
    12     4    11    1
    13     6    12    1
    14     9    13    1
