@<TRIPOS>MOLECULE
c1cn2cncnc2n1
 13 14 0 0 0
SMALL
GASTEIGER
Energy = 0

@<TRIPOS>ATOM
      1 C           1.4427    0.0115    0.0000 C.ar    1  LIG1        0.0480
      2 C           0.9578    0.6789    0.0000 C.ar    1  LIG1        0.0322
      3 N           0.1732    0.4240    0.0000 N.ar    1  LIG1       -0.2744
      4 C          -0.5413    0.8365    0.0000 C.ar    1  LIG1        0.1043
      5 N          -1.2558    0.4240    0.0000 N.ar    1  LIG1       -0.2255
      6 C          -1.2558   -0.4010    0.0000 C.ar    1  LIG1        0.1214
      7 N          -0.5413   -0.8135    0.0000 N.ar    1  LIG1       -0.2003
      8 C           0.1732   -0.4010    0.0000 C.ar    1  LIG1        0.2373
      9 N           0.9578   -0.6560    0.0000 N.ar    1  LIG1       -0.2187
     10 H           2.5442    0.0115    0.0000 H       1  LIG1        0.0846
     11 H           1.2982    1.7265    0.0000 H       1  LIG1        0.0829
     12 H          -0.5413    1.9380    0.0000 H       1  LIG1        0.1033
     13 H          -2.2097   -0.9518    0.0000 H       1  LIG1        0.1048
@<TRIPOS>BOND
     1     1     2   ar
     2     2     3   ar
     3     3     4   ar
     4     4     5   ar
     5     5     6   ar
     6     6     7   ar
     7     7     8   ar
     8     3     8   ar
     9     8     9   ar
    10     1     9   ar
    11     1    10    1
    12     2    11    1
    13     4    12    1
    14     6    13    1
