@<TRIPOS>MOLECULE
c1nc2nncnc2s1
 11 12 0 0 0
SMALL
GASTEIGER
Energy = 0

@<TRIPOS>ATOM
      1 S           0.8272   -0.5849    0.0000 S.2     1  LIG1       -0.0542
      2 C           1.3121    0.0825    0.0000 C.ar    1  LIG1        0.0692
      3 N           0.8272    0.7499    0.0000 N.ar    1  LIG1       -0.2253
      4 C           0.0426    0.4950    0.0000 C.ar    1  LIG1        0.2076
      5 N          -0.6719    0.9075    0.0000 N.ar    1  LIG1       -0.1255
      6 N          -1.3864    0.4950    0.0000 N.ar    1  LIG1       -0.1357
      7 C          -1.3864   -0.3300    0.0000 C.ar    1  LIG1        0.1396
      8 N          -0.6719   -0.7425    0.0000 N.ar    1  LIG1       -0.2232
      9 C           0.0426   -0.3300    0.0000 C.ar    1  LIG1        0.1500
     10 H           2.4136    0.0825    0.0000 H       1  LIG1        0.0909
     11 H          -2.3403   -0.8808    0.0000 H       1  LIG1        0.1066
@<TRIPOS>BOND
     1     1     2   ar
     2     2     3   ar
     3     3     4   ar
     4     4     5   ar
     5     5     6   ar
     6     6     7   ar
     7     7     8   ar
     8     8     9   ar
     9     1     9   ar
    10     4     9   ar
    11     2    10    1
    12     7    11    1
