@<TRIPOS>MOLECULE
Cn1cnc2cncc2c1
 17 18 0 0 0
SMALL
GASTEIGER
Energy = 0

@<TRIPOS>ATOM
      1 C           1.7875   -0.7529    0.0000 C.3     1  LIG1        0.0127
      2 N           1.0730   -0.3404    0.0000 N.ar    1  LIG1       -0.3406
      3 C           1.0730    0.4846    0.0000 C.ar    1  LIG1        0.0963
      4 N           0.3585    0.8971    0.0000 N.ar    1  LIG1       -0.2356
      5 C          -0.3559    0.4846    0.0000 C.ar    1  LIG1        0.0935
      6 C          -1.1405    0.7395    0.0000 C.ar    1  LIG1        0.0536
      7 N          -1.6255    0.0721    0.0000 N.ar    1  LIG1       -0.2604
      8 C          -1.1405   -0.5954    0.0000 C.ar    1  LIG1        0.0382
      9 C          -0.3559   -0.3404    0.0000 C.ar    1  LIG1        0.0360
     10 C           0.3585   -0.7529    0.0000 C.ar    1  LIG1        0.0162
     11 H           2.6543   -0.0125    0.0000 H       1  LIG1        0.0456
     12 H           1.8501   -1.4339   -0.9121 H       1  LIG1        0.0456
     13 H           1.8469   -1.3995    0.9370 H       1  LIG1        0.0456
     14 H           2.0269    1.0354    0.0000 H       1  LIG1        0.1029
     15 H          -1.4808    1.7871    0.0000 H       1  LIG1        0.0851
     16 H          -1.4808   -1.6430    0.0000 H       1  LIG1        0.0837
     17 H           0.3585   -1.8544    0.0000 H       1  LIG1        0.0816
@<TRIPOS>BOND
     1     1     2    1
     2     2     3   ar
     3     3     4   ar
     4     4     5   ar
     5     5     6   ar
     6     6     7   ar
     7     7     8   ar
     8     8     9   ar
     9     5     9   ar
    10     9    10   ar
    11     2    10   ar
    12     1    11    1
    13     1    12    1
    14     1    13    1
    15     3    14    1
    16     6    15    1
    17     8    16    1
    18    10    17    1
