@<TRIPOS>MOLECULE
Cn1ccc(=O)c2ncoc12
 17 18 0 0 0
SMALL
GASTEIGER
Energy = 0

@<TRIPOS>ATOM
      1 C          -0.4776   -1.6750    0.0000 C.3     1  LIG1        0.0146
      2 N          -0.4776   -0.8500    0.0000 N.ar    1  LIG1       -0.3196
      3 C          -1.1920   -0.4375    0.0000 C.ar    1  LIG1        0.0112
      4 C          -1.1920    0.3875    0.0000 C.ar    1  LIG1        0.0036
      5 C          -0.4776    0.8000    0.0000 C.ar    1  LIG1        0.2108
      6 O          -0.4776    1.6250    0.0000 O.2     1  LIG1       -0.2854
      7 C           0.2369    0.3875    0.0000 C.ar    1  LIG1        0.1735
      8 C           0.2369   -0.4375    0.0000 C.ar    1  LIG1        0.2320
      9 O           1.0215   -0.6925    0.0000 O.2     1  LIG1       -0.4260
     10 C           1.5064   -0.0250    0.0000 C.ar    1  LIG1        0.1851
     11 N           1.0215    0.6424    0.0000 N.ar    1  LIG1       -0.2106
     12 H          -1.5522   -2.0555    0.0000 H       1  LIG1        0.0457
     13 H           0.0809   -2.0697    0.9121 H       1  LIG1        0.0457
     14 H           0.0526   -2.0497   -0.9370 H       1  LIG1        0.0457
     15 H          -2.1459   -0.9882    0.0000 H       1  LIG1        0.0811
     16 H          -2.1459    0.9382    0.0000 H       1  LIG1        0.0671
     17 H           2.6079   -0.0250    0.0000 H       1  LIG1        0.1256
@<TRIPOS>BOND
     1     1     2    1
     2     2     3   ar
     3     3     4   ar
     4     4     5   ar
     5     5     6    2
     6     5     7   ar
     7     7     8   ar
     8     2     8   ar
     9     8     9   ar
    10     9    10   ar
    11    10    11   ar
    12     7    11   ar
    13     1    12    1
    14     1    13    1
    15     1    14    1
    16     3    15    1
    17     4    16    1
    18    10    17    1
