@<TRIPOS>MOLECULE
Cn1cc2ncccc2n1
 17 18 0 0 0
SMALL
GASTEIGER
Energy = 0

@<TRIPOS>ATOM
      1 C           2.0118   -0.0025    0.0000 C.3     1  LIG1        0.0303
      2 N           1.1868   -0.0025    0.0000 N.ar    1  LIG1       -0.2718
      3 C           0.7018    0.6649    0.0000 C.ar    1  LIG1        0.0512
      4 C          -0.0828    0.4100    0.0000 C.ar    1  LIG1        0.1084
      5 N          -0.7973    0.8225    0.0000 N.ar    1  LIG1       -0.2519
      6 C          -1.5117    0.4100    0.0000 C.ar    1  LIG1        0.0284
      7 C          -1.5117   -0.4150    0.0000 C.ar    1  LIG1       -0.0415
      8 C          -0.7973   -0.8275    0.0000 C.ar    1  LIG1       -0.0310
      9 C          -0.0828   -0.4150    0.0000 C.ar    1  LIG1        0.1109
     10 N           0.7018   -0.6699    0.0000 N.ar    1  LIG1       -0.1699
     11 H           2.3923    1.0721    0.0000 H       1  LIG1        0.0473
     12 H           2.4065   -0.5610   -0.9121 H       1  LIG1        0.0473
     13 H           2.3865   -0.5327    0.9370 H       1  LIG1        0.0473
     14 H           1.0421    1.7125    0.0000 H       1  LIG1        0.0848
     15 H          -2.4656    0.9607    0.0000 H       1  LIG1        0.0830
     16 H          -2.4656   -0.9657    0.0000 H       1  LIG1        0.0633
     17 H          -0.7973   -1.9290    0.0000 H       1  LIG1        0.0640
@<TRIPOS>BOND
     1     1     2    1
     2     2     3   ar
     3     3     4   ar
     4     4     5   ar
     5     5     6   ar
     6     6     7   ar
     7     7     8   ar
     8     8     9   ar
     9     4     9   ar
    10     9    10   ar
    11     2    10   ar
    12     1    11    1
    13     1    12    1
    14     1    13    1
    15     3    14    1
    16     6    15    1
    17     7    16    1
    18     8    17    1
