@<TRIPOS>MOLECULE
Cn1ccc2[nH]cnc12
 16 17 0 0 0
SMALL
GASTEIGER
Energy = 0

@<TRIPOS>ATOM
      1 C           0.9438   -1.2875    0.0000 C.3     1  LIG1        0.0133
      2 N           0.6889   -0.5029    0.0000 N.ar    1  LIG1       -0.3337
      3 C           1.1738    0.1645    0.0000 C.ar    1  LIG1        0.0082
      4 C           0.6889    0.8320    0.0000 C.ar    1  LIG1       -0.0186
      5 C          -0.0957    0.5770    0.0000 C.ar    1  LIG1        0.0847
      6 C          -0.0957   -0.2480    0.0000 C.ar    1  LIG1        0.1585
      7 N          -0.8803   -0.5029    0.0000 N.ar    1  LIG1       -0.2182
      8 C          -1.3653    0.1645    0.0000 C.ar    1  LIG1        0.0961
      9 N          -0.8803    0.8320    0.0000 N.ar    1  LIG1       -0.3431
     10 H           2.0834   -1.3174    0.0000 H       1  LIG1        0.0456
     11 H           0.5346   -1.8354   -0.9121 H       1  LIG1        0.0456
     12 H           0.5553   -1.8077    0.9370 H       1  LIG1        0.0456
     13 H           2.2753    0.1645    0.0000 H       1  LIG1        0.0810
     14 H           1.0293    1.8796    0.0000 H       1  LIG1        0.0654
     15 H          -2.4668    0.1645    0.0000 H       1  LIG1        0.1027
     16 H          -1.2148    1.8615    0.0000 H       1  LIG1        0.1668
@<TRIPOS>BOND
     1     1     2    1
     2     2     3   ar
     3     3     4   ar
     4     4     5   ar
     5     5     6   ar
     6     2     6   ar
     7     6     7   ar
     8     7     8   ar
     9     8     9   ar
    10     5     9   ar
    11     1    10    1
    12     1    11    1
    13     1    12    1
    14     3    13    1
    15     4    14    1
    16     8    15    1
    17     9    16    1
