@<TRIPOS>MOLECULE
Cn1c(=O)cc2occn2c1=O
 18 19 0 0 0
SMALL
GASTEIGER
Energy = 0

@<TRIPOS>ATOM
      1 C           1.5901   -0.6870    0.0000 C.3     1  LIG1        0.0196
      2 N           0.8756   -0.2745    0.0000 N.ar    1  LIG1       -0.2635
      3 C           0.8756    0.5505    0.0000 C.ar    1  LIG1        0.2599
      4 O           1.5901    0.9630    0.0000 O.2     1  LIG1       -0.2674
      5 C           0.1611    0.9630    0.0000 C.ar    1  LIG1        0.0637
      6 C          -0.5533    0.5505    0.0000 C.ar    1  LIG1        0.2139
      7 O          -1.3380    0.8054    0.0000 O.2     1  LIG1       -0.4451
      8 C          -1.8229    0.1380    0.0000 C.ar    1  LIG1        0.1110
      9 C          -1.3380   -0.5294    0.0000 C.ar    1  LIG1        0.0523
     10 N          -0.5533   -0.2745    0.0000 N.ar    1  LIG1       -0.2361
     11 C           0.1611   -0.6870    0.0000 C.ar    1  LIG1        0.3385
     12 O           0.1611   -1.5120    0.0000 O.2     1  LIG1       -0.2458
     13 H           2.4569    0.0534    0.0000 H       1  LIG1        0.0458
     14 H           1.6527   -1.3680   -0.9121 H       1  LIG1        0.0458
     15 H           1.6495   -1.3336    0.9370 H       1  LIG1        0.0458
     16 H           0.1611    2.0645    0.0000 H       1  LIG1        0.0725
     17 H          -2.9244    0.1380    0.0000 H       1  LIG1        0.1045
     18 H          -1.6784   -1.5770    0.0000 H       1  LIG1        0.0846
@<TRIPOS>BOND
     1     1     2    1
     2     2     3   ar
     3     3     4    2
     4     3     5   ar
     5     5     6   ar
     6     6     7   ar
     7     7     8   ar
     8     8     9   ar
     9     9    10   ar
    10     6    10   ar
    11    10    11   ar
    12     2    11   ar
    13    11    12    2
    14     1    13    1
    15     1    14    1
    16     1    15    1
    17     5    16    1
    18     8    17    1
    19     9    18    1
