@<TRIPOS>MOLECULE
Cn1cc2cccnc2c1
 18 19 0 0 0
SMALL
GASTEIGER
Energy = 0

@<TRIPOS>ATOM
      1 C           2.0230    0.0133    0.0000 C.3     1  LIG1        0.0114
      2 N           1.1980    0.0133    0.0000 N.ar    1  LIG1       -0.3536
      3 C           0.7131    0.6807    0.0000 C.ar    1  LIG1        0.0135
      4 C          -0.0715    0.4258    0.0000 C.ar    1  LIG1        0.0179
      5 C          -0.7860    0.8383    0.0000 C.ar    1  LIG1       -0.0497
      6 C          -1.5004    0.4258    0.0000 C.ar    1  LIG1       -0.0430
      7 C          -1.5004   -0.3992    0.0000 C.ar    1  LIG1        0.0283
      8 N          -0.7860   -0.8117    0.0000 N.ar    1  LIG1       -0.2535
      9 C          -0.0715   -0.3992    0.0000 C.ar    1  LIG1        0.0884
     10 C           0.7131   -0.6542    0.0000 C.ar    1  LIG1        0.0303
     11 H           2.4035    1.0879    0.0000 H       1  LIG1        0.0455
     12 H           2.4177   -0.5452   -0.9121 H       1  LIG1        0.0455
     13 H           2.3977   -0.5169    0.9370 H       1  LIG1        0.0455
     14 H           1.0535    1.7283    0.0000 H       1  LIG1        0.0815
     15 H          -0.7860    1.9398    0.0000 H       1  LIG1        0.0625
     16 H          -2.4543    0.9765    0.0000 H       1  LIG1        0.0633
     17 H          -2.4543   -0.9499    0.0000 H       1  LIG1        0.0830
     18 H           1.0535   -1.7018    0.0000 H       1  LIG1        0.0830
@<TRIPOS>BOND
     1     1     2    1
     2     2     3   ar
     3     3     4   ar
     4     4     5   ar
     5     5     6   ar
     6     6     7   ar
     7     7     8   ar
     8     8     9   ar
     9     4     9   ar
    10     9    10   ar
    11     2    10   ar
    12     1    11    1
    13     1    12    1
    14     1    13    1
    15     3    14    1
    16     5    15    1
    17     6    16    1
    18     7    17    1
    19    10    18    1
