@<TRIPOS>MOLECULE
O=c1ccn2nncc2[nH]1
 14 15 0 0 0
SMALL
GASTEIGER
Energy = 0

@<TRIPOS>ATOM
      1 O           1.7723    0.7289    0.0000 O.2     1  LIG1       -0.2678
      2 C           1.0579    0.3164    0.0000 C.ar    1  LIG1        0.2517
      3 N           0.3434    0.7289    0.0000 N.ar    1  LIG1       -0.3061
      4 C          -0.3711    0.3164    0.0000 C.ar    1  LIG1        0.1566
      5 C          -1.1557    0.5714    0.0000 C.ar    1  LIG1        0.0939
      6 N          -1.6406   -0.0961    0.0000 N.ar    1  LIG1       -0.1354
      7 N          -1.1557   -0.7635    0.0000 N.ar    1  LIG1       -0.0594
      8 N          -0.3711   -0.5086    0.0000 N.ar    1  LIG1       -0.2036
      9 C           0.3434   -0.9211    0.0000 C.ar    1  LIG1        0.0381
     10 C           1.0579   -0.5086    0.0000 C.ar    1  LIG1        0.0210
     11 H           0.3434    1.8114    0.0000 H       1  LIG1        0.1704
     12 H          -1.4961    1.6190    0.0000 H       1  LIG1        0.0886
     13 H           0.3434   -2.0226    0.0000 H       1  LIG1        0.0833
     14 H           2.0118   -1.0594    0.0000 H       1  LIG1        0.0687
@<TRIPOS>BOND
     1     1     2    2
     2     2     3   ar
     3     3     4   ar
     4     4     5   ar
     5     5     6   ar
     6     6     7   ar
     7     7     8   ar
     8     4     8   ar
     9     8     9   ar
    10     9    10   ar
    11     2    10   ar
    12     3    11    1
    13     5    12    1
    14     9    13    1
    15    10    14    1
