@<TRIPOS>MOLECULE
c1n[nH]c2cnccc12
 14 15 0 0 0
SMALL
GASTEIGER
Energy = 0

@<TRIPOS>ATOM
      1 N           0.9261   -0.6485    0.0000 N.ar    1  LIG1       -0.2755
      2 N           1.4111    0.0189    0.0000 N.ar    1  LIG1       -0.1811
      3 C           0.9261    0.6863    0.0000 C.ar    1  LIG1        0.0570
      4 C           0.1415    0.4314    0.0000 C.ar    1  LIG1        0.0224
      5 C          -0.5730    0.8439    0.0000 C.ar    1  LIG1       -0.0329
      6 C          -1.2874    0.4314    0.0000 C.ar    1  LIG1        0.0283
      7 N          -1.2874   -0.3936    0.0000 N.ar    1  LIG1       -0.2611
      8 C          -0.5730   -0.8061    0.0000 C.ar    1  LIG1        0.0529
      9 C           0.1415   -0.3936    0.0000 C.ar    1  LIG1        0.0838
     10 H           1.2606   -1.6780    0.0000 H       1  LIG1        0.1890
     11 H           1.2664    1.7339    0.0000 H       1  LIG1        0.0854
     12 H          -0.5730    1.9454    0.0000 H       1  LIG1        0.0640
     13 H          -2.2413    0.9821    0.0000 H       1  LIG1        0.0830
     14 H          -0.5730   -1.9076    0.0000 H       1  LIG1        0.0851
@<TRIPOS>BOND
     1     1     2   ar
     2     2     3   ar
     3     3     4   ar
     4     4     5   ar
     5     5     6   ar
     6     6     7   ar
     7     7     8   ar
     8     8     9   ar
     9     1     9   ar
    10     4     9   ar
    11     1    10    1
    12     3    11    1
    13     5    12    1
    14     6    13    1
    15     8    14    1
