@<TRIPOS>MOLECULE
Cn1nc2ccccn2c1=O
 18 19 0 0 0
SMALL
GASTEIGER
Energy = 0

@<TRIPOS>ATOM
      1 C           1.8940    0.1599    0.0000 C.3     1  LIG1        0.0355
      2 N           1.0690    0.1599    0.0000 N.ar    1  LIG1       -0.2154
      3 N           0.5841    0.8274    0.0000 N.ar    1  LIG1       -0.1490
      4 C          -0.2006    0.5724    0.0000 C.ar    1  LIG1        0.1617
      5 C          -0.9150    0.9849    0.0000 C.ar    1  LIG1       -0.0170
      6 C          -1.6295    0.5724    0.0000 C.ar    1  LIG1       -0.0569
      7 C          -1.6295   -0.2526    0.0000 C.ar    1  LIG1       -0.0449
      8 C          -0.9150   -0.6651    0.0000 C.ar    1  LIG1        0.0161
      9 N          -0.2006   -0.2526    0.0000 N.ar    1  LIG1       -0.2508
     10 C           0.5841   -0.5075    0.0000 C.ar    1  LIG1        0.3508
     11 O           0.8390   -1.2921    0.0000 O.2     1  LIG1       -0.2444
     12 H           2.2745    1.2345    0.0000 H       1  LIG1        0.0474
     13 H           2.2887   -0.3986   -0.9121 H       1  LIG1        0.0474
     14 H           2.2687   -0.3703    0.9370 H       1  LIG1        0.0474
     15 H          -0.9150    2.0864    0.0000 H       1  LIG1        0.0655
     16 H          -2.5834    1.1232    0.0000 H       1  LIG1        0.0619
     17 H          -2.5834   -0.8034    0.0000 H       1  LIG1        0.0632
     18 H          -0.9150   -1.7666    0.0000 H       1  LIG1        0.0815
@<TRIPOS>BOND
     1     1     2    1
     2     2     3   ar
     3     3     4   ar
     4     4     5   ar
     5     5     6   ar
     6     6     7   ar
     7     7     8   ar
     8     8     9   ar
     9     4     9   ar
    10     9    10   ar
    11     2    10   ar
    12    10    11    2
    13     1    12    1
    14     1    13    1
    15     1    14    1
    16     5    15    1
    17     6    16    1
    18     7    17    1
    19     8    18    1
