@<TRIPOS>MOLECULE
c1nsc2cnccc12
 13 14 0 0 0
SMALL
GASTEIGER
Energy = 0

@<TRIPOS>ATOM
      1 S           0.7996   -0.5599    0.0000 S.2     1  LIG1        0.0131
      2 N           1.2845    0.1075    0.0000 N.ar    1  LIG1       -0.2175
      3 C           0.7996    0.7750    0.0000 C.ar    1  LIG1        0.0445
      4 C           0.0149    0.5200    0.0000 C.ar    1  LIG1        0.0117
      5 C          -0.6995    0.9325    0.0000 C.ar    1  LIG1       -0.0339
      6 C          -1.4140    0.5200    0.0000 C.ar    1  LIG1        0.0282
      7 N          -1.4140   -0.3050    0.0000 N.ar    1  LIG1       -0.2621
      8 C          -0.6995   -0.7175    0.0000 C.ar    1  LIG1        0.0433
      9 C           0.0149   -0.3050    0.0000 C.ar    1  LIG1        0.0574
     10 H           1.1400    1.8226    0.0000 H       1  LIG1        0.0843
     11 H          -0.6995    2.0340    0.0000 H       1  LIG1        0.0639
     12 H          -2.3679    1.0708    0.0000 H       1  LIG1        0.0830
     13 H          -0.6995   -1.8190    0.0000 H       1  LIG1        0.0841
@<TRIPOS>BOND
     1     1     2   ar
     2     2     3   ar
     3     3     4   ar
     4     4     5   ar
     5     5     6   ar
     6     6     7   ar
     7     7     8   ar
     8     8     9   ar
     9     1     9   ar
    10     4     9   ar
    11     3    10    1
    12     5    11    1
    13     6    12    1
    14     8    13    1
