@<TRIPOS>MOLECULE
O=c1[nH]ncc2[nH]ccc12
 15 16 0 0 0
SMALL
GASTEIGER
Energy = 0

@<TRIPOS>ATOM
      1 O          -0.4611   -1.4573    0.0000 O.2     1  LIG1       -0.2657
      2 C          -0.4611   -0.6323    0.0000 C.ar    1  LIG1        0.2739
      3 N          -1.1756   -0.2198    0.0000 N.ar    1  LIG1       -0.2426
      4 N          -1.1756    0.6052    0.0000 N.ar    1  LIG1       -0.1773
      5 C          -0.4611    1.0177    0.0000 C.ar    1  LIG1        0.0718
      6 C           0.2534    0.6052    0.0000 C.ar    1  LIG1        0.0717
      7 C           0.2534   -0.2198    0.0000 C.ar    1  LIG1        0.0668
      8 C           1.0380   -0.4747    0.0000 C.ar    1  LIG1       -0.0314
      9 C           1.5229    0.1927    0.0000 C.ar    1  LIG1        0.0029
     10 N           1.0380    0.8601    0.0000 N.ar    1  LIG1       -0.3593
     11 H          -2.1131   -0.7611    0.0000 H       1  LIG1        0.1921
     12 H          -0.4611    2.1192    0.0000 H       1  LIG1        0.0868
     13 H           1.3784   -1.5223    0.0000 H       1  LIG1        0.0640
     14 H           2.6244    0.1927    0.0000 H       1  LIG1        0.0807
     15 H           1.3725    1.8896    0.0000 H       1  LIG1        0.1654
@<TRIPOS>BOND
     1     1     2    2
     2     2     3   ar
     3     3     4   ar
     4     4     5   ar
     5     5     6   ar
     6     6     7   ar
     7     2     7   ar
     8     7     8   ar
     9     8     9   ar
    10     9    10   ar
    11     6    10   ar
    12     3    11    1
    13     5    12    1
    14     8    13    1
    15     9    14    1
    16    10    15    1
