@<TRIPOS>MOLECULE
O=c1cncc2sccn12
 14 15 0 0 0
SMALL
GASTEIGER
Energy = 0

@<TRIPOS>ATOM
      1 O           0.6069   -1.5622    0.0000 O.2     1  LIG1       -0.2657
      2 C           0.6069   -0.7372    0.0000 C.ar    1  LIG1        0.2743
      3 C           1.3213   -0.3247    0.0000 C.ar    1  LIG1        0.0924
      4 N           1.3213    0.5003    0.0000 N.ar    1  LIG1       -0.2553
      5 C           0.6069    0.9128    0.0000 C.ar    1  LIG1        0.0585
      6 C          -0.1076    0.5003    0.0000 C.ar    1  LIG1        0.1053
      7 S          -0.8922    0.7553    0.0000 S.2     1  LIG1       -0.0762
      8 C          -1.3771    0.0878    0.0000 C.ar    1  LIG1       -0.0057
      9 C          -0.8922   -0.5796    0.0000 C.ar    1  LIG1        0.0204
     10 N          -0.1076   -0.3247    0.0000 N.ar    1  LIG1       -0.2750
     11 H           2.2752   -0.8754    0.0000 H       1  LIG1        0.0885
     12 H           0.6069    2.0143    0.0000 H       1  LIG1        0.0856
     13 H          -2.4786    0.0878    0.0000 H       1  LIG1        0.0709
     14 H          -1.2326   -1.6272    0.0000 H       1  LIG1        0.0819
@<TRIPOS>BOND
     1     1     2    2
     2     2     3   ar
     3     3     4   ar
     4     4     5   ar
     5     5     6   ar
     6     6     7   ar
     7     7     8   ar
     8     8     9   ar
     9     9    10   ar
    10     2    10   ar
    11     6    10   ar
    12     3    11    1
    13     5    12    1
    14     8    13    1
    15     9    14    1
