@<TRIPOS>MOLECULE
Cn1nccc2cnc(=O)nc12
 18 19 0 0 0
SMALL
GASTEIGER
Energy = 0

@<TRIPOS>ATOM
      1 C           0.8792   -1.4174    0.0000 C.3     1  LIG1        0.0324
      2 N           0.8792   -0.5924    0.0000 N.ar    1  LIG1       -0.2494
      3 N           1.5937   -0.1799    0.0000 N.ar    1  LIG1       -0.1781
      4 C           1.5937    0.6451    0.0000 C.ar    1  LIG1        0.0487
      5 C           0.8792    1.0576    0.0000 C.ar    1  LIG1       -0.0298
      6 C           0.1647    0.6451    0.0000 C.ar    1  LIG1        0.0387
      7 C          -0.5498    1.0576    0.0000 C.ar    1  LIG1        0.0438
      8 N          -1.2642    0.6451    0.0000 N.ar    1  LIG1       -0.1992
      9 C          -1.2642   -0.1799    0.0000 C.ar    1  LIG1        0.3695
     10 O          -1.9787   -0.5924    0.0000 O.2     1  LIG1       -0.2426
     11 N          -0.5498   -0.5924    0.0000 N.ar    1  LIG1       -0.1721
     12 C           0.1647   -0.1799    0.0000 C.ar    1  LIG1        0.1634
     13 H           1.9538   -1.7979    0.0000 H       1  LIG1        0.0473
     14 H           0.3207   -1.8121   -0.9121 H       1  LIG1        0.0473
     15 H           0.3490   -1.7921    0.9370 H       1  LIG1        0.0473
     16 H           2.5476    1.1959    0.0000 H       1  LIG1        0.0847
     17 H           0.8792    2.1591    0.0000 H       1  LIG1        0.0641
     18 H          -0.5498    2.1591    0.0000 H       1  LIG1        0.0838
@<TRIPOS>BOND
     1     1     2    1
     2     2     3   ar
     3     3     4   ar
     4     4     5   ar
     5     5     6   ar
     6     6     7   ar
     7     7     8   ar
     8     8     9   ar
     9     9    10    2
    10     9    11   ar
    11    11    12   ar
    12     2    12   ar
    13     6    12   ar
    14     1    13    1
    15     1    14    1
    16     1    15    1
    17     4    16    1
    18     5    17    1
    19     7    18    1
