@<TRIPOS>MOLECULE
Cn1cnoc1=O
 11 11 0 0 0
SMALL
GASTEIGER
Energy = 0

@<TRIPOS>ATOM
      1 C          -0.1568   -1.2929    0.0000 C.3     1  LIG1        0.0192
      2 N           0.0982   -0.5083    0.0000 N.ar    1  LIG1       -0.2668
      3 C           0.8828   -0.2533    0.0000 C.ar    1  LIG1        0.1408
      4 N           0.8828    0.5717    0.0000 N.ar    1  LIG1       -0.0627
      5 O           0.0982    0.8266    0.0000 O.2     1  LIG1       -0.2957
      6 C          -0.3867    0.1592    0.0000 C.ar    1  LIG1        0.4420
      7 O          -1.2117    0.1592    0.0000 O.2     1  LIG1       -0.2207
      8 H           0.7476   -1.9870    0.0000 H       1  LIG1        0.0458
      9 H          -0.8099   -1.4956   -0.9121 H       1  LIG1        0.0458
     10 H          -0.7769   -1.4854    0.9370 H       1  LIG1        0.0458
     11 H           1.7740   -0.9007    0.0000 H       1  LIG1        0.1065
@<TRIPOS>BOND
     1     1     2    1
     2     2     3   ar
     3     3     4   ar
     4     4     5   ar
     5     5     6   ar
     6     2     6   ar
     7     6     7    2
     8     1     8    1
     9     1     9    1
    10     1    10    1
    11     3    11    1
