@<TRIPOS>MOLECULE
Cn1ccc2cn[nH]c(=O)c12
 18 19 0 0 0
SMALL
GASTEIGER
Energy = 0

@<TRIPOS>ATOM
      1 C           1.1837   -1.1342    0.0000 C.3     1  LIG1        0.0120
      2 N           0.9287   -0.3495    0.0000 N.ar    1  LIG1       -0.3454
      3 C           1.4136    0.3179    0.0000 C.ar    1  LIG1        0.0056
      4 C           0.9287    0.9853    0.0000 C.ar    1  LIG1       -0.0348
      5 C           0.1441    0.7304    0.0000 C.ar    1  LIG1        0.0249
      6 C           0.1441   -0.0946    0.0000 C.ar    1  LIG1        0.1169
      7 C          -0.5704   -0.5071    0.0000 C.ar    1  LIG1        0.2889
      8 O          -0.5704   -1.3321    0.0000 O.2     1  LIG1       -0.2642
      9 N          -1.2848   -0.0946    0.0000 N.ar    1  LIG1       -0.2415
     10 N          -1.2848    0.7304    0.0000 N.ar    1  LIG1       -0.1787
     11 C          -0.5704    1.1429    0.0000 C.ar    1  LIG1        0.0571
     12 H           2.3233   -1.1640    0.0000 H       1  LIG1        0.0456
     13 H           0.7746   -1.6821   -0.9121 H       1  LIG1        0.0456
     14 H           0.7952   -1.6545    0.9370 H       1  LIG1        0.0456
     15 H           2.5151    0.3179    0.0000 H       1  LIG1        0.0809
     16 H           1.2691    2.0329    0.0000 H       1  LIG1        0.0639
     17 H          -2.2223   -0.6358    0.0000 H       1  LIG1        0.1922
     18 H          -0.5704    2.2444    0.0000 H       1  LIG1        0.0854
@<TRIPOS>BOND
     1     1     2    1
     2     2     3   ar
     3     3     4   ar
     4     4     5   ar
     5     5     6   ar
     6     2     6   ar
     7     6     7   ar
     8     7     8    2
     9     7     9   ar
    10     9    10   ar
    11    10    11   ar
    12     5    11   ar
    13     1    12    1
    14     1    13    1
    15     1    14    1
    16     3    15    1
    17     4    16    1
    18     9    17    1
    19    11    18    1
