@<TRIPOS>MOLECULE
O=c1[nH]cnn2cncc12
 14 15 0 0 0
SMALL
GASTEIGER
Energy = 0

@<TRIPOS>ATOM
      1 O           0.4830   -1.4626    0.0000 O.2     1  LIG1       -0.2655
      2 C           0.4830   -0.6376    0.0000 C.ar    1  LIG1        0.2769
      3 N           1.1975   -0.2251    0.0000 N.ar    1  LIG1       -0.3103
      4 C           1.1975    0.5999    0.0000 C.ar    1  LIG1        0.1171
      5 N           0.4830    1.0124    0.0000 N.ar    1  LIG1       -0.1553
      6 N          -0.2314    0.5999    0.0000 N.ar    1  LIG1       -0.2136
      7 C          -1.0161    0.8548    0.0000 C.ar    1  LIG1        0.1184
      8 N          -1.5010    0.1874    0.0000 N.ar    1  LIG1       -0.2414
      9 C          -1.0161   -0.4800    0.0000 C.ar    1  LIG1        0.0601
     10 C          -0.2314   -0.2251    0.0000 C.ar    1  LIG1        0.1492
     11 H           2.1350   -0.7664    0.0000 H       1  LIG1        0.1699
     12 H           2.1514    1.1507    0.0000 H       1  LIG1        0.1046
     13 H          -1.3565    1.9024    0.0000 H       1  LIG1        0.1047
     14 H          -1.3565   -1.5276    0.0000 H       1  LIG1        0.0853
@<TRIPOS>BOND
     1     1     2    2
     2     2     3   ar
     3     3     4   ar
     4     4     5   ar
     5     5     6   ar
     6     6     7   ar
     7     7     8   ar
     8     8     9   ar
     9     9    10   ar
    10     2    10   ar
    11     6    10   ar
    12     3    11    1
    13     4    12    1
    14     7    13    1
    15     9    14    1
