@<TRIPOS>MOLECULE
Cn1cncc2cnc(=O)nc12
 18 19 0 0 0
SMALL
GASTEIGER
Energy = 0

@<TRIPOS>ATOM
      1 C           0.8792   -1.4279    0.0000 C.3     1  LIG1        0.0146
      2 N           0.8792   -0.6029    0.0000 N.ar    1  LIG1       -0.3192
      3 C           1.5937   -0.1904    0.0000 C.ar    1  LIG1        0.0971
      4 N           1.5937    0.6346    0.0000 N.ar    1  LIG1       -0.2447
      5 C           0.8792    1.0471    0.0000 C.ar    1  LIG1        0.0413
      6 C           0.1647    0.6346    0.0000 C.ar    1  LIG1        0.0539
      7 C          -0.5498    1.0471    0.0000 C.ar    1  LIG1        0.0452
      8 N          -1.2642    0.6346    0.0000 N.ar    1  LIG1       -0.1991
      9 C          -1.2642   -0.1904    0.0000 C.ar    1  LIG1        0.3695
     10 O          -1.9787   -0.6029    0.0000 O.2     1  LIG1       -0.2426
     11 N          -0.5498   -0.6029    0.0000 N.ar    1  LIG1       -0.1734
     12 C           0.1647   -0.1904    0.0000 C.ar    1  LIG1        0.1499
     13 H           1.9538   -1.8084    0.0000 H       1  LIG1        0.0457
     14 H           0.3207   -1.8226   -0.9121 H       1  LIG1        0.0457
     15 H           0.3490   -1.8026    0.9370 H       1  LIG1        0.0457
     16 H           2.5476   -0.7412    0.0000 H       1  LIG1        0.1029
     17 H           0.8792    2.1486    0.0000 H       1  LIG1        0.0838
     18 H          -0.5498    2.1486    0.0000 H       1  LIG1        0.0839
@<TRIPOS>BOND
     1     1     2    1
     2     2     3   ar
     3     3     4   ar
     4     4     5   ar
     5     5     6   ar
     6     6     7   ar
     7     7     8   ar
     8     8     9   ar
     9     9    10    2
    10     9    11   ar
    11    11    12   ar
    12     2    12   ar
    13     6    12   ar
    14     1    13    1
    15     1    14    1
    16     1    15    1
    17     3    16    1
    18     5    17    1
    19     7    18    1
