@<TRIPOS>MOLECULE
Cn1cc2ccccc2n1
 18 19 0 0 0
SMALL
GASTEIGER
Energy = 0

@<TRIPOS>ATOM
      1 C           1.9989    0.0107    0.0000 C.3     1  LIG1        0.0302
      2 N           1.1739    0.0107    0.0000 N.ar    1  LIG1       -0.2733
      3 C           0.6890    0.6782    0.0000 C.ar    1  LIG1        0.0329
      4 C          -0.0956    0.4232    0.0000 C.ar    1  LIG1        0.0197
      5 C          -0.8101    0.8357    0.0000 C.ar    1  LIG1       -0.0511
      6 C          -1.5246    0.4232    0.0000 C.ar    1  LIG1       -0.0610
      7 C          -1.5246   -0.4018    0.0000 C.ar    1  LIG1       -0.0597
      8 C          -0.8101   -0.8143    0.0000 C.ar    1  LIG1       -0.0340
      9 C          -0.0956   -0.4018    0.0000 C.ar    1  LIG1        0.0927
     10 N           0.6890   -0.6567    0.0000 N.ar    1  LIG1       -0.1715
     11 H           2.3794    1.0853    0.0000 H       1  LIG1        0.0473
     12 H           2.3936   -0.5478   -0.9121 H       1  LIG1        0.0473
     13 H           2.3736   -0.5195    0.9370 H       1  LIG1        0.0473
     14 H           1.0294    1.7258    0.0000 H       1  LIG1        0.0832
     15 H          -0.8101    1.9372    0.0000 H       1  LIG1        0.0625
     16 H          -2.4785    0.9740    0.0000 H       1  LIG1        0.0618
     17 H          -2.4785   -0.9526    0.0000 H       1  LIG1        0.0618
     18 H          -0.8101   -1.9158    0.0000 H       1  LIG1        0.0639
@<TRIPOS>BOND
     1     1     2    1
     2     2     3   ar
     3     3     4   ar
     4     4     5   ar
     5     5     6   ar
     6     6     7   ar
     7     7     8   ar
     8     8     9   ar
     9     4     9   ar
    10     9    10   ar
    11     2    10   ar
    12     1    11    1
    13     1    12    1
    14     1    13    1
    15     3    14    1
    16     5    15    1
    17     6    16    1
    18     7    17    1
    19     8    18    1
