@<TRIPOS>MOLECULE
O=c1ccn2c(=O)[nH]ccn12
 16 17 0 0 0
SMALL
GASTEIGER
Energy = 0

@<TRIPOS>ATOM
      1 O          -0.6115   -1.6227    0.0000 O.2     1  LIG1       -0.2447
      2 C          -0.6115   -0.7977    0.0000 C.ar    1  LIG1        0.3458
      3 N          -1.3260   -0.3852    0.0000 N.ar    1  LIG1       -0.3116
      4 C          -1.3260    0.4398    0.0000 C.ar    1  LIG1        0.0246
      5 C          -0.6115    0.8523    0.0000 C.ar    1  LIG1        0.0476
      6 N           0.1030    0.4398    0.0000 N.ar    1  LIG1       -0.2149
      7 N           0.1030   -0.3852    0.0000 N.ar    1  LIG1       -0.2025
      8 C           0.8876   -0.6401    0.0000 C.ar    1  LIG1        0.0381
      9 C           1.3725    0.0273    0.0000 C.ar    1  LIG1        0.0229
     10 C           0.8876    0.6948    0.0000 C.ar    1  LIG1        0.2717
     11 O           1.1425    1.4794    0.0000 O.2     1  LIG1       -0.2659
     12 H          -2.2635   -0.9265    0.0000 H       1  LIG1        0.1699
     13 H          -2.2799    0.9906    0.0000 H       1  LIG1        0.0824
     14 H          -0.6115    1.9538    0.0000 H       1  LIG1        0.0845
     15 H           1.2280   -1.6877    0.0000 H       1  LIG1        0.0833
     16 H           2.4740    0.0273    0.0000 H       1  LIG1        0.0687
@<TRIPOS>BOND
     1     1     2    2
     2     2     3   ar
     3     3     4   ar
     4     4     5   ar
     5     5     6   ar
     6     6     7   ar
     7     2     7   ar
     8     7     8   ar
     9     8     9   ar
    10     9    10   ar
    11     6    10   ar
    12    10    11    2
    13     3    12    1
    14     4    13    1
    15     5    14    1
    16     8    15    1
    17     9    16    1
