@<TRIPOS>MOLECULE
Cn1ncc2nnccc12
 16 17 0 0 0
SMALL
GASTEIGER
Energy = 0

@<TRIPOS>ATOM
      1 C           1.0793   -1.3248    0.0000 C.3     1  LIG1        0.0309
      2 N           0.8243   -0.5402    0.0000 N.ar    1  LIG1       -0.2651
      3 N           1.3092    0.1273    0.0000 N.ar    1  LIG1       -0.1771
      4 C           0.8243    0.7947    0.0000 C.ar    1  LIG1        0.0771
      5 C           0.0397    0.5398    0.0000 C.ar    1  LIG1        0.1307
      6 N          -0.6748    0.9523    0.0000 N.ar    1  LIG1       -0.1461
      7 N          -1.3892    0.5398    0.0000 N.ar    1  LIG1       -0.1570
      8 C          -1.3892   -0.2852    0.0000 C.ar    1  LIG1        0.0520
      9 C          -0.6748   -0.6977    0.0000 C.ar    1  LIG1       -0.0146
     10 C           0.0397   -0.2852    0.0000 C.ar    1  LIG1        0.0900
     11 H           2.2189   -1.3546    0.0000 H       1  LIG1        0.0473
     12 H           0.6702   -1.8728   -0.9121 H       1  LIG1        0.0473
     13 H           0.6908   -1.8451    0.9370 H       1  LIG1        0.0473
     14 H           1.1647    1.8423    0.0000 H       1  LIG1        0.0870
     15 H          -2.3431   -0.8359    0.0000 H       1  LIG1        0.0848
     16 H          -0.6748   -1.7992    0.0000 H       1  LIG1        0.0655
@<TRIPOS>BOND
     1     1     2    1
     2     2     3   ar
     3     3     4   ar
     4     4     5   ar
     5     5     6   ar
     6     6     7   ar
     7     7     8   ar
     8     8     9   ar
     9     9    10   ar
    10     2    10   ar
    11     5    10   ar
    12     1    11    1
    13     1    12    1
    14     1    13    1
    15     4    14    1
    16     8    15    1
    17     9    16    1
