@<TRIPOS>MOLECULE
Cn1[nH]c2ncccc2c1=O
 18 19 0 0 0
SMALL
GASTEIGER
Energy = 0

@<TRIPOS>ATOM
      1 C           1.9040    0.1425    0.0000 C.3     1  LIG1        0.0319
      2 N           1.0790    0.1425    0.0000 N.ar    1  LIG1       -0.2532
      3 N           0.5941    0.8100    0.0000 N.ar    1  LIG1       -0.2779
      4 C          -0.1905    0.5550    0.0000 C.ar    1  LIG1        0.1579
      5 N          -0.9050    0.9675    0.0000 N.ar    1  LIG1       -0.2360
      6 C          -1.6195    0.5550    0.0000 C.ar    1  LIG1        0.0300
      7 C          -1.6195   -0.2700    0.0000 C.ar    1  LIG1       -0.0427
      8 C          -0.9050   -0.6825    0.0000 C.ar    1  LIG1       -0.0444
      9 C          -0.1905   -0.2700    0.0000 C.ar    1  LIG1        0.0843
     10 C           0.5941   -0.5249    0.0000 C.ar    1  LIG1        0.2761
     11 O           0.8490   -1.3095    0.0000 O.2     1  LIG1       -0.2655
     12 H           2.2845    1.2171    0.0000 H       1  LIG1        0.0473
     13 H           2.2987   -0.4160   -0.9121 H       1  LIG1        0.0473
     14 H           2.2787   -0.3877    0.9370 H       1  LIG1        0.0473
     15 H           0.9286    1.8395    0.0000 H       1  LIG1        0.1886
     16 H          -2.5734    1.1058    0.0000 H       1  LIG1        0.0830
     17 H          -2.5734   -0.8208    0.0000 H       1  LIG1        0.0633
     18 H          -0.9050   -1.7840    0.0000 H       1  LIG1        0.0627
@<TRIPOS>BOND
     1     1     2    1
     2     2     3   ar
     3     3     4   ar
     4     4     5   ar
     5     5     6   ar
     6     6     7   ar
     7     7     8   ar
     8     8     9   ar
     9     4     9   ar
    10     9    10   ar
    11     2    10   ar
    12    10    11    2
    13     1    12    1
    14     1    13    1
    15     1    14    1
    16     3    15    1
    17     6    16    1
    18     7    17    1
    19     8    18    1
