@<TRIPOS>MOLECULE
O=c1[nH]c(=O)c2ncccc2[nH]1
 17 18 0 0 0
SMALL
GASTEIGER
Energy = 0

@<TRIPOS>ATOM
      1 O           1.8361   -0.9137    0.0000 O.2     1  LIG1       -0.2467
      2 C           1.1217   -0.5012    0.0000 C.ar    1  LIG1        0.3273
      3 N           1.1217    0.3238    0.0000 N.ar    1  LIG1       -0.2733
      4 C           0.4072    0.7363    0.0000 C.ar    1  LIG1        0.2800
      5 O           0.4072    1.5613    0.0000 O.2     1  LIG1       -0.2654
      6 C          -0.3073    0.3238    0.0000 C.ar    1  LIG1        0.1513
      7 N          -1.0217    0.7363    0.0000 N.ar    1  LIG1       -0.2481
      8 C          -1.7362    0.3238    0.0000 C.ar    1  LIG1        0.0286
      9 C          -1.7362   -0.5012    0.0000 C.ar    1  LIG1       -0.0416
     10 C          -1.0217   -0.9137    0.0000 C.ar    1  LIG1       -0.0346
     11 C          -0.3073   -0.5012    0.0000 C.ar    1  LIG1        0.0741
     12 N           0.4072   -0.9137    0.0000 N.ar    1  LIG1       -0.3058
     13 H           2.0592    0.8651    0.0000 H       1  LIG1        0.1735
     14 H          -2.6901    0.8746    0.0000 H       1  LIG1        0.0830
     15 H          -2.6901   -1.0520    0.0000 H       1  LIG1        0.0633
     16 H          -1.0217   -2.0152    0.0000 H       1  LIG1        0.0639
     17 H           0.4072   -1.9962    0.0000 H       1  LIG1        0.1704
@<TRIPOS>BOND
     1     1     2    2
     2     2     3   ar
     3     3     4   ar
     4     4     5    2
     5     4     6   ar
     6     6     7   ar
     7     7     8   ar
     8     8     9   ar
     9     9    10   ar
    10    10    11   ar
    11     6    11   ar
    12    11    12   ar
    13     2    12   ar
    14     3    13    1
    15     8    14    1
    16     9    15    1
    17    10    16    1
    18    12    17    1
