@<TRIPOS>MOLECULE
Cn1c(=O)nnc2cccnc12
 18 19 0 0 0
SMALL
GASTEIGER
Energy = 0

@<TRIPOS>ATOM
      1 C           0.4124   -1.4332    0.0000 C.3     1  LIG1        0.0182
      2 N           0.4124   -0.6082    0.0000 N.ar    1  LIG1       -0.2771
      3 C           1.1269   -0.1957    0.0000 C.ar    1  LIG1        0.3680
      4 O           1.8413   -0.6082    0.0000 O.2     1  LIG1       -0.2428
      5 N           1.1269    0.6293    0.0000 N.ar    1  LIG1       -0.0895
      6 N           0.4124    1.0418    0.0000 N.ar    1  LIG1       -0.1413
      7 C          -0.3021    0.6293    0.0000 C.ar    1  LIG1        0.1287
      8 C          -1.0165    1.0418    0.0000 C.ar    1  LIG1       -0.0295
      9 C          -1.7310    0.6293    0.0000 C.ar    1  LIG1       -0.0414
     10 C          -1.7310   -0.1957    0.0000 C.ar    1  LIG1        0.0300
     11 N          -1.0165   -0.6082    0.0000 N.ar    1  LIG1       -0.2356
     12 C          -0.3021   -0.1957    0.0000 C.ar    1  LIG1        0.1646
     13 H           1.4870   -1.8137    0.0000 H       1  LIG1        0.0458
     14 H          -0.1461   -1.8279   -0.9121 H       1  LIG1        0.0458
     15 H          -0.1178   -1.8079    0.9370 H       1  LIG1        0.0458
     16 H          -1.0165    2.1433    0.0000 H       1  LIG1        0.0641
     17 H          -2.6849    1.1801    0.0000 H       1  LIG1        0.0633
     18 H          -2.6849   -0.7465    0.0000 H       1  LIG1        0.0830
@<TRIPOS>BOND
     1     1     2    1
     2     2     3   ar
     3     3     4    2
     4     3     5   ar
     5     5     6   ar
     6     6     7   ar
     7     7     8   ar
     8     8     9   ar
     9     9    10   ar
    10    10    11   ar
    11    11    12   ar
    12     2    12   ar
    13     7    12   ar
    14     1    13    1
    15     1    14    1
    16     1    15    1
    17     8    16    1
    18     9    17    1
    19    10    18    1
