@<TRIPOS>MOLECULE
Cn1cnc2ncnnc12
 15 16 0 0 0
SMALL
GASTEIGER
Energy = 0

@<TRIPOS>ATOM
      1 C           1.0970   -1.3117    0.0000 C.3     1  LIG1        0.0147
      2 N           0.8421   -0.5270    0.0000 N.ar    1  LIG1       -0.3154
      3 C           1.3270    0.1404    0.0000 C.ar    1  LIG1        0.0997
      4 N           0.8421    0.8078    0.0000 N.ar    1  LIG1       -0.2149
      5 C           0.0575    0.5529    0.0000 C.ar    1  LIG1        0.2006
      6 N          -0.6570    0.9654    0.0000 N.ar    1  LIG1       -0.2114
      7 C          -1.3715    0.5529    0.0000 C.ar    1  LIG1        0.1407
      8 N          -1.3715   -0.2721    0.0000 N.ar    1  LIG1       -0.1357
      9 N          -0.6570   -0.6846    0.0000 N.ar    1  LIG1       -0.1261
     10 C           0.0575   -0.2721    0.0000 C.ar    1  LIG1        0.2012
     11 H           2.2366   -1.3416    0.0000 H       1  LIG1        0.0457
     12 H           0.6878   -1.8596   -0.9121 H       1  LIG1        0.0457
     13 H           0.7085   -1.8319    0.9370 H       1  LIG1        0.0457
     14 H           2.4285    0.1404    0.0000 H       1  LIG1        0.1030
     15 H          -2.3254    1.1037    0.0000 H       1  LIG1        0.1066
@<TRIPOS>BOND
     1     1     2    1
     2     2     3   ar
     3     3     4   ar
     4     4     5   ar
     5     5     6   ar
     6     6     7   ar
     7     7     8   ar
     8     8     9   ar
     9     9    10   ar
    10     2    10   ar
    11     5    10   ar
    12     1    11    1
    13     1    12    1
    14     1    13    1
    15     3    14    1
    16     7    15    1
