@<TRIPOS>MOLECULE
c1nc2ncsc2o1
 10 11 0 0 0
SMALL
GASTEIGER
Energy = 0

@<TRIPOS>ATOM
      1 O           0.8862   -0.5596    0.0000 O.2     1  LIG1       -0.4337
      2 C           1.3711    0.1078    0.0000 C.ar    1  LIG1        0.1854
      3 N           0.8862    0.7753    0.0000 N.ar    1  LIG1       -0.1960
      4 C           0.1016    0.5203    0.0000 C.ar    1  LIG1        0.2061
      5 C           0.1016   -0.3047    0.0000 C.ar    1  LIG1        0.2127
      6 S          -0.6831   -0.5596    0.0000 S.2     1  LIG1       -0.0363
      7 C          -1.1680    0.1078    0.0000 C.ar    1  LIG1        0.0706
      8 N          -0.6831    0.7753    0.0000 N.ar    1  LIG1       -0.2253
      9 H           2.4726    0.1078    0.0000 H       1  LIG1        0.1256
     10 H          -2.2695    0.1078    0.0000 H       1  LIG1        0.0909
@<TRIPOS>BOND
     1     1     2   ar
     2     2     3   ar
     3     3     4   ar
     4     4     5   ar
     5     1     5   ar
     6     5     6   ar
     7     6     7   ar
     8     7     8   ar
     9     4     8   ar
    10     2     9    1
    11     7    10    1
