@<TRIPOS>MOLECULE
Cn1ccn2c(=O)[nH]c(=O)c2c1
 19 20 0 0 0
SMALL
GASTEIGER
Energy = 0

@<TRIPOS>ATOM
      1 C           2.0790   -0.7623    0.0000 C.3     1  LIG1        0.0115
      2 N           1.3645   -0.3498    0.0000 N.ar    1  LIG1       -0.3528
      3 C           1.3645    0.4752    0.0000 C.ar    1  LIG1        0.0209
      4 C           0.6500    0.8877    0.0000 C.ar    1  LIG1        0.0309
      5 N          -0.0645    0.4752    0.0000 N.ar    1  LIG1       -0.2617
      6 C          -0.8491    0.7301    0.0000 C.ar    1  LIG1        0.3341
      7 O          -1.1040    1.5147    0.0000 O.2     1  LIG1       -0.2461
      8 N          -1.3340    0.0627    0.0000 N.ar    1  LIG1       -0.2729
      9 C          -0.8491   -0.6048    0.0000 C.ar    1  LIG1        0.2781
     10 O          -1.1040   -1.3894    0.0000 O.2     1  LIG1       -0.2655
     11 C          -0.0645   -0.3498    0.0000 C.ar    1  LIG1        0.1313
     12 C           0.6500   -0.7623    0.0000 C.ar    1  LIG1        0.0336
     13 H           2.9458   -0.0219    0.0000 H       1  LIG1        0.0455
     14 H           2.1416   -1.4433   -0.9121 H       1  LIG1        0.0455
     15 H           2.1384   -1.4089    0.9370 H       1  LIG1        0.0455
     16 H           2.3184    1.0260    0.0000 H       1  LIG1        0.0824
     17 H           0.6500    1.9892    0.0000 H       1  LIG1        0.0829
     18 H          -2.4165    0.0627    0.0000 H       1  LIG1        0.1735
     19 H           0.6500   -1.8638    0.0000 H       1  LIG1        0.0832
@<TRIPOS>BOND
     1     1     2    1
     2     2     3   ar
     3     3     4   ar
     4     4     5   ar
     5     5     6   ar
     6     6     7    2
     7     6     8   ar
     8     8     9   ar
     9     9    10    2
    10     9    11   ar
    11     5    11   ar
    12    11    12   ar
    13     2    12   ar
    14     1    13    1
    15     1    14    1
    16     1    15    1
    17     3    16    1
    18     4    17    1
    19     8    18    1
    20    12    19    1
