@<TRIPOS>MOLECULE
c1cn2[nH]ncc2n1
 12 13 0 0 0
SMALL
GASTEIGER
Energy = 0

@<TRIPOS>ATOM
      1 N           0.7603   -0.6595    0.0000 N.ar    1  LIG1       -0.2113
      2 N           1.2452    0.0079    0.0000 N.ar    1  LIG1       -0.1624
      3 C           0.7603    0.6754    0.0000 C.ar    1  LIG1        0.0933
      4 C          -0.0243    0.4204    0.0000 C.ar    1  LIG1        0.1734
      5 N          -0.8090    0.6754    0.0000 N.ar    1  LIG1       -0.2334
      6 C          -1.2939    0.0079    0.0000 C.ar    1  LIG1        0.0481
      7 C          -0.8090   -0.6595    0.0000 C.ar    1  LIG1        0.0490
      8 N          -0.0243   -0.4046    0.0000 N.ar    1  LIG1       -0.2255
      9 H           1.0948   -1.6890    0.0000 H       1  LIG1        0.2109
     10 H           1.1007    1.7230    0.0000 H       1  LIG1        0.0886
     11 H          -2.3954    0.0079    0.0000 H       1  LIG1        0.0846
     12 H          -1.1494   -1.7071    0.0000 H       1  LIG1        0.0846
@<TRIPOS>BOND
     1     1     2   ar
     2     2     3   ar
     3     3     4   ar
     4     4     5   ar
     5     5     6   ar
     6     6     7   ar
     7     7     8   ar
     8     1     8   ar
     9     4     8   ar
    10     1     9    1
    11     3    10    1
    12     6    11    1
    13     7    12    1
