@<TRIPOS>MOLECULE
c1n[nH]c2nscc12
 11 12 0 0 0
SMALL
GASTEIGER
Energy = 0

@<TRIPOS>ATOM
      1 N           0.9723   -0.6456    0.0000 N.ar    1  LIG1       -0.2597
      2 N           1.4573    0.0218    0.0000 N.ar    1  LIG1       -0.1799
      3 C           0.9723    0.6893    0.0000 C.ar    1  LIG1        0.0590
      4 C           0.1877    0.4343    0.0000 C.ar    1  LIG1        0.0468
      5 C          -0.5969    0.6893    0.0000 C.ar    1  LIG1        0.0065
      6 S          -1.0818    0.0218    0.0000 S.2     1  LIG1        0.0063
      7 N          -0.5969   -0.6456    0.0000 N.ar    1  LIG1       -0.1910
      8 C           0.1877   -0.3907    0.0000 C.ar    1  LIG1        0.1644
      9 H           1.3068   -1.6751    0.0000 H       1  LIG1        0.1905
     10 H           1.3126    1.7369    0.0000 H       1  LIG1        0.0855
     11 H          -0.9373    1.7369    0.0000 H       1  LIG1        0.0716
@<TRIPOS>BOND
     1     1     2   ar
     2     2     3   ar
     3     3     4   ar
     4     4     5   ar
     5     5     6   ar
     6     6     7   ar
     7     7     8   ar
     8     1     8   ar
     9     4     8   ar
    10     1     9    1
    11     3    10    1
    12     5    11    1
