@<TRIPOS>MOLECULE
c1nc2ccccc2o1
 14 15 0 0 0
SMALL
GASTEIGER
Energy = 0

@<TRIPOS>ATOM
      1 O           0.8959   -0.6558    0.0000 O.2     1  LIG1       -0.4425
      2 C           1.3808    0.0117    0.0000 C.ar    1  LIG1        0.1831
      3 N           0.8959    0.6791    0.0000 N.ar    1  LIG1       -0.2161
      4 C           0.1113    0.4242    0.0000 C.ar    1  LIG1        0.1093
      5 C          -0.6032    0.8367    0.0000 C.ar    1  LIG1       -0.0326
      6 C          -1.3177    0.4242    0.0000 C.ar    1  LIG1       -0.0595
      7 C          -1.3177   -0.4008    0.0000 C.ar    1  LIG1       -0.0582
      8 C          -0.6032   -0.8133    0.0000 C.ar    1  LIG1       -0.0172
      9 C           0.1113   -0.4008    0.0000 C.ar    1  LIG1        0.1550
     10 H           2.4823    0.0117    0.0000 H       1  LIG1        0.1255
     11 H          -0.6032    1.9382    0.0000 H       1  LIG1        0.0640
     12 H          -2.2716    0.9750    0.0000 H       1  LIG1        0.0618
     13 H          -2.2716   -0.9516    0.0000 H       1  LIG1        0.0619
     14 H          -0.6032   -1.9148    0.0000 H       1  LIG1        0.0655
@<TRIPOS>BOND
     1     1     2   ar
     2     2     3   ar
     3     3     4   ar
     4     4     5   ar
     5     5     6   ar
     6     6     7   ar
     7     7     8   ar
     8     8     9   ar
     9     1     9   ar
    10     4     9   ar
    11     2    10    1
    12     5    11    1
    13     6    12    1
    14     7    13    1
    15     8    14    1
