@<TRIPOS>MOLECULE
O=c1cnc2ncncc2[nH]1
 15 16 0 0 0
SMALL
GASTEIGER
Energy = 0

@<TRIPOS>ATOM
      1 O           1.9153    0.7391    0.0000 O.2     1  LIG1       -0.2662
      2 C           1.2008    0.3266    0.0000 C.ar    1  LIG1        0.2675
      3 N           0.4864    0.7391    0.0000 N.ar    1  LIG1       -0.3172
      4 C          -0.2281    0.3266    0.0000 C.ar    1  LIG1        0.1050
      5 C          -0.9426    0.7391    0.0000 C.ar    1  LIG1        0.0563
      6 N          -1.6570    0.3266    0.0000 N.ar    1  LIG1       -0.2415
      7 C          -1.6570   -0.4984    0.0000 C.ar    1  LIG1        0.1184
      8 N          -0.9426   -0.9109    0.0000 N.ar    1  LIG1       -0.2146
      9 C          -0.2281   -0.4984    0.0000 C.ar    1  LIG1        0.1795
     10 N           0.4864   -0.9109    0.0000 N.ar    1  LIG1       -0.2290
     11 C           1.2008   -0.4984    0.0000 C.ar    1  LIG1        0.0943
     12 H           0.4864    1.8216    0.0000 H       1  LIG1        0.1691
     13 H          -0.9426    1.8406    0.0000 H       1  LIG1        0.0852
     14 H          -2.6109   -1.0491    0.0000 H       1  LIG1        0.1047
     15 H           2.1547   -1.0491    0.0000 H       1  LIG1        0.0886
@<TRIPOS>BOND
     1     1     2    2
     2     2     3   ar
     3     3     4   ar
     4     4     5   ar
     5     5     6   ar
     6     6     7   ar
     7     7     8   ar
     8     8     9   ar
     9     4     9   ar
    10     9    10   ar
    11    10    11   ar
    12     2    11   ar
    13     3    12    1
    14     5    13    1
    15     7    14    1
    16    11    15    1
