@<TRIPOS>MOLECULE
O=c1cc[nH]nc1
 11 11 0 0 0
SMALL
GASTEIGER
Energy = 0

@<TRIPOS>ATOM
      1 O           0.0155   -1.3901    0.0000 O.2     1  LIG1       -0.2862
      2 C           0.0155   -0.5651    0.0000 C.ar    1  LIG1        0.2000
      3 C           0.7300   -0.1526    0.0000 C.ar    1  LIG1        0.0041
      4 C           0.7300    0.6724    0.0000 C.ar    1  LIG1        0.0245
      5 N           0.0155    1.0849    0.0000 N.ar    1  LIG1       -0.2846
      6 N          -0.6990    0.6724    0.0000 N.ar    1  LIG1       -0.1786
      7 C          -0.6990   -0.1526    0.0000 C.ar    1  LIG1        0.0943
      8 H           1.6839   -0.7034    0.0000 H       1  LIG1        0.0671
      9 H           1.6839    1.2232    0.0000 H       1  LIG1        0.0824
     10 H           0.0155    2.1674    0.0000 H       1  LIG1        0.1882
     11 H          -1.6529   -0.7034    0.0000 H       1  LIG1        0.0886
@<TRIPOS>BOND
     1     1     2    2
     2     2     3   ar
     3     3     4   ar
     4     4     5   ar
     5     5     6   ar
     6     6     7   ar
     7     2     7   ar
     8     3     8    1
     9     4     9    1
    10     5    10    1
    11     7    11    1
