@<TRIPOS>MOLECULE
Cn1ccc2scnc12
 15 16 0 0 0
SMALL
GASTEIGER
Energy = 0

@<TRIPOS>ATOM
      1 C           1.0642   -1.4012    0.0000 C.3     1  LIG1        0.0132
      2 N           0.8092   -0.6166    0.0000 N.ar    1  LIG1       -0.3345
      3 C           1.2941    0.0508    0.0000 C.ar    1  LIG1        0.0073
      4 C           0.8092    0.7183    0.0000 C.ar    1  LIG1       -0.0282
      5 C           0.0246    0.4633    0.0000 C.ar    1  LIG1        0.0574
      6 C           0.0246   -0.3617    0.0000 C.ar    1  LIG1        0.1477
      7 N          -0.7600   -0.6166    0.0000 N.ar    1  LIG1       -0.2297
      8 C          -1.2450    0.0508    0.0000 C.ar    1  LIG1        0.0676
      9 S          -0.7600    0.7183    0.0000 S.2     1  LIG1       -0.0738
     10 H           2.2038   -1.4310    0.0000 H       1  LIG1        0.0456
     11 H           0.6551   -1.9492   -0.9121 H       1  LIG1        0.0456
     12 H           0.6757   -1.9215    0.9370 H       1  LIG1        0.0456
     13 H           2.3956    0.0508    0.0000 H       1  LIG1        0.0810
     14 H           1.1496    1.7659    0.0000 H       1  LIG1        0.0644
     15 H          -2.3465    0.0508    0.0000 H       1  LIG1        0.0908
@<TRIPOS>BOND
     1     1     2    1
     2     2     3   ar
     3     3     4   ar
     4     4     5   ar
     5     5     6   ar
     6     2     6   ar
     7     6     7   ar
     8     7     8   ar
     9     8     9   ar
    10     5     9   ar
    11     1    10    1
    12     1    11    1
    13     1    12    1
    14     3    13    1
    15     4    14    1
    16     8    15    1
