@<TRIPOS>MOLECULE
Cn1ncc2ccnn2c1=O
 17 18 0 0 0
SMALL
GASTEIGER
Energy = 0

@<TRIPOS>ATOM
      1 C           1.7360   -0.5581    0.0000 C.3     1  LIG1        0.0354
      2 N           1.0215   -0.1456    0.0000 N.ar    1  LIG1       -0.2162
      3 N           1.0215    0.6794    0.0000 N.ar    1  LIG1       -0.1736
      4 C           0.3071    1.0919    0.0000 C.ar    1  LIG1        0.0737
      5 C          -0.4074    0.6794    0.0000 C.ar    1  LIG1        0.0919
      6 C          -1.1920    0.9344    0.0000 C.ar    1  LIG1       -0.0148
      7 C          -1.6770    0.2669    0.0000 C.ar    1  LIG1        0.0506
      8 N          -1.1920   -0.4005    0.0000 N.ar    1  LIG1       -0.1704
      9 N          -0.4074   -0.1456    0.0000 N.ar    1  LIG1       -0.1791
     10 C           0.3071   -0.5581    0.0000 C.ar    1  LIG1        0.3659
     11 O           0.3071   -1.3831    0.0000 O.2     1  LIG1       -0.2429
     12 H           2.6028    0.1823    0.0000 H       1  LIG1        0.0474
     13 H           1.7986   -1.2391   -0.9121 H       1  LIG1        0.0474
     14 H           1.7954   -1.2047    0.9370 H       1  LIG1        0.0474
     15 H           0.3071    2.1934    0.0000 H       1  LIG1        0.0869
     16 H          -1.5323    1.9820    0.0000 H       1  LIG1        0.0655
     17 H          -2.7785    0.2669    0.0000 H       1  LIG1        0.0848
@<TRIPOS>BOND
     1     1     2    1
     2     2     3   ar
     3     3     4   ar
     4     4     5   ar
     5     5     6   ar
     6     6     7   ar
     7     7     8   ar
     8     8     9   ar
     9     5     9   ar
    10     9    10   ar
    11     2    10   ar
    12    10    11    2
    13     1    12    1
    14     1    13    1
    15     1    14    1
    16     4    15    1
    17     6    16    1
    18     7    17    1
