@<TRIPOS>MOLECULE
Cn1cccc2nccc12
 18 19 0 0 0
SMALL
GASTEIGER
Energy = 0

@<TRIPOS>ATOM
      1 C           0.5063   -1.4878    0.0000 C.3     1  LIG1        0.0119
      2 N           0.5063   -0.6628    0.0000 N.ar    1  LIG1       -0.3485
      3 C           1.2208   -0.2503    0.0000 C.ar    1  LIG1        0.0049
      4 C           1.2208    0.5747    0.0000 C.ar    1  LIG1       -0.0435
      5 C           0.5063    0.9872    0.0000 C.ar    1  LIG1       -0.0329
      6 C          -0.2082    0.5747    0.0000 C.ar    1  LIG1        0.0873
      7 N          -0.9928    0.8297    0.0000 N.ar    1  LIG1       -0.2534
      8 C          -1.4777    0.1622    0.0000 C.ar    1  LIG1        0.0303
      9 C          -0.9928   -0.5052    0.0000 C.ar    1  LIG1       -0.0180
     10 C          -0.2082   -0.2503    0.0000 C.ar    1  LIG1        0.0687
     11 H           1.5809   -1.8683    0.0000 H       1  LIG1        0.0456
     12 H          -0.0522   -1.8825   -0.9121 H       1  LIG1        0.0456
     13 H          -0.0239   -1.8625    0.9370 H       1  LIG1        0.0456
     14 H           2.1747   -0.8011    0.0000 H       1  LIG1        0.0809
     15 H           2.1747    1.1255    0.0000 H       1  LIG1        0.0633
     16 H           0.5063    2.0887    0.0000 H       1  LIG1        0.0640
     17 H          -2.5792    0.1622    0.0000 H       1  LIG1        0.0830
     18 H          -1.3332   -1.5528    0.0000 H       1  LIG1        0.0654
@<TRIPOS>BOND
     1     1     2    1
     2     2     3   ar
     3     3     4   ar
     4     4     5   ar
     5     5     6   ar
     6     6     7   ar
     7     7     8   ar
     8     8     9   ar
     9     9    10   ar
    10     2    10   ar
    11     6    10   ar
    12     1    11    1
    13     1    12    1
    14     1    13    1
    15     3    14    1
    16     4    15    1
    17     5    16    1
    18     8    17    1
    19     9    18    1
