@<TRIPOS>MOLECULE
c1nsc2nccnc12
 12 13 0 0 0
SMALL
GASTEIGER
Energy = 0

@<TRIPOS>ATOM
      1 S           0.7993   -0.5676    0.0000 S.2     1  LIG1        0.0332
      2 N           1.2843    0.0998    0.0000 N.ar    1  LIG1       -0.2145
      3 C           0.7993    0.7672    0.0000 C.ar    1  LIG1        0.0642
      4 C           0.0147    0.5123    0.0000 C.ar    1  LIG1        0.1159
      5 N          -0.6998    0.9248    0.0000 N.ar    1  LIG1       -0.2498
      6 C          -1.4142    0.5123    0.0000 C.ar    1  LIG1        0.0465
      7 C          -1.4142   -0.3127    0.0000 C.ar    1  LIG1        0.0470
      8 N          -0.6998   -0.7252    0.0000 N.ar    1  LIG1       -0.2433
      9 C           0.0147   -0.3127    0.0000 C.ar    1  LIG1        0.1458
     10 H           1.1396    1.8148    0.0000 H       1  LIG1        0.0859
     11 H          -2.3681    1.0630    0.0000 H       1  LIG1        0.0845
     12 H          -2.3681   -0.8634    0.0000 H       1  LIG1        0.0845
@<TRIPOS>BOND
     1     1     2   ar
     2     2     3   ar
     3     3     4   ar
     4     4     5   ar
     5     5     6   ar
     6     6     7   ar
     7     7     8   ar
     8     8     9   ar
     9     1     9   ar
    10     4     9   ar
    11     3    10    1
    12     6    11    1
    13     7    12    1
