@<TRIPOS>MOLECULE
c1nn2cnnc2[nH]1
 11 12 0 0 0
SMALL
GASTEIGER
Energy = 0

@<TRIPOS>ATOM
      1 N           0.7937   -0.6626    0.0000 N.ar    1  LIG1       -0.3124
      2 C           1.2787    0.0048    0.0000 C.ar    1  LIG1        0.1171
      3 N           0.7937    0.6722    0.0000 N.ar    1  LIG1       -0.1529
      4 N           0.0091    0.4173    0.0000 N.ar    1  LIG1       -0.1843
      5 C          -0.7755    0.6722    0.0000 C.ar    1  LIG1        0.1436
      6 N          -1.2604    0.0048    0.0000 N.ar    1  LIG1       -0.1342
      7 N          -0.7755   -0.6626    0.0000 N.ar    1  LIG1       -0.1091
      8 C           0.0091   -0.4077    0.0000 C.ar    1  LIG1        0.2511
      9 H           1.1282   -1.6921    0.0000 H       1  LIG1        0.1698
     10 H           2.3802    0.0048    0.0000 H       1  LIG1        0.1046
     11 H          -1.1159    1.7198    0.0000 H       1  LIG1        0.1067
@<TRIPOS>BOND
     1     1     2   ar
     2     2     3   ar
     3     3     4   ar
     4     4     5   ar
     5     5     6   ar
     6     6     7   ar
     7     7     8   ar
     8     1     8   ar
     9     4     8   ar
    10     1     9    1
    11     2    10    1
    12     5    11    1
