@<TRIPOS>MOLECULE
Cn1cnn2c(=O)cnnc12
 16 17 0 0 0
SMALL
GASTEIGER
Energy = 0

@<TRIPOS>ATOM
      1 C           1.1592   -1.5021    0.0000 C.3     1  LIG1        0.0161
      2 N           0.9043   -0.7175    0.0000 N.ar    1  LIG1       -0.3013
      3 C           1.3892   -0.0501    0.0000 C.ar    1  LIG1        0.1195
      4 N           0.9043    0.6174    0.0000 N.ar    1  LIG1       -0.1509
      5 N           0.1197    0.3624    0.0000 N.ar    1  LIG1       -0.1586
      6 C          -0.5948    0.7749    0.0000 C.ar    1  LIG1        0.2943
      7 O          -0.5948    1.5999    0.0000 O.2     1  LIG1       -0.2640
      8 C          -1.3093    0.3624    0.0000 C.ar    1  LIG1        0.1163
      9 N          -1.3093   -0.4626    0.0000 N.ar    1  LIG1       -0.1487
     10 N          -0.5948   -0.8751    0.0000 N.ar    1  LIG1       -0.1102
     11 C           0.1197   -0.4626    0.0000 C.ar    1  LIG1        0.2552
     12 H           2.2988   -1.5320    0.0000 H       1  LIG1        0.0457
     13 H           0.7500   -2.0500   -0.9121 H       1  LIG1        0.0457
     14 H           0.7707   -2.0223    0.9370 H       1  LIG1        0.0457
     15 H           2.4907   -0.0501    0.0000 H       1  LIG1        0.1048
     16 H          -2.2632    0.9132    0.0000 H       1  LIG1        0.0904
@<TRIPOS>BOND
     1     1     2    1
     2     2     3   ar
     3     3     4   ar
     4     4     5   ar
     5     5     6   ar
     6     6     7    2
     7     6     8   ar
     8     8     9   ar
     9     9    10   ar
    10    10    11   ar
    11     2    11   ar
    12     5    11   ar
    13     1    12    1
    14     1    13    1
    15     1    14    1
    16     3    15    1
    17     8    16    1
