@<TRIPOS>MOLECULE
Cn1c(=O)ncn2ccnc12
 17 18 0 0 0
SMALL
GASTEIGER
Energy = 0

@<TRIPOS>ATOM
      1 C           0.2774   -1.4116    0.0000 C.3     1  LIG1        0.0195
      2 N           0.2774   -0.5866    0.0000 N.ar    1  LIG1       -0.2652
      3 C           0.9919   -0.1741    0.0000 C.ar    1  LIG1        0.3521
      4 O           1.7063   -0.5866    0.0000 O.2     1  LIG1       -0.2444
      5 N           0.9919    0.6509    0.0000 N.ar    1  LIG1       -0.1828
      6 C           0.2774    1.0634    0.0000 C.ar    1  LIG1        0.1080
      7 N          -0.4371    0.6509    0.0000 N.ar    1  LIG1       -0.2755
      8 C          -1.2217    0.9058    0.0000 C.ar    1  LIG1        0.0321
      9 C          -1.7066    0.2384    0.0000 C.ar    1  LIG1        0.0479
     10 N          -1.2217   -0.4291    0.0000 N.ar    1  LIG1       -0.2201
     11 C          -0.4371   -0.1741    0.0000 C.ar    1  LIG1        0.2199
     12 H           1.3520   -1.7921    0.0000 H       1  LIG1        0.0458
     13 H          -0.2811   -1.8063   -0.9121 H       1  LIG1        0.0458
     14 H          -0.2528   -1.7863    0.9370 H       1  LIG1        0.0458
     15 H           0.2774    2.1649    0.0000 H       1  LIG1        0.1035
     16 H          -1.5621    1.9534    0.0000 H       1  LIG1        0.0829
     17 H          -2.8081    0.2384    0.0000 H       1  LIG1        0.0846
@<TRIPOS>BOND
     1     1     2    1
     2     2     3   ar
     3     3     4    2
     4     3     5   ar
     5     5     6   ar
     6     6     7   ar
     7     7     8   ar
     8     8     9   ar
     9     9    10   ar
    10    10    11   ar
    11     2    11   ar
    12     7    11   ar
    13     1    12    1
    14     1    13    1
    15     1    14    1
    16     6    15    1
    17     8    16    1
    18     9    17    1
