@<TRIPOS>MOLECULE
Cn1ccc(=O)nn1
 13 13 0 0 0
SMALL
GASTEIGER
Energy = 0

@<TRIPOS>ATOM
      1 C           0.0269   -1.6965    0.0000 C.3     1  LIG1        0.0318
      2 N           0.0269   -0.8715    0.0000 N.ar    1  LIG1       -0.2560
      3 C           0.7414   -0.4590    0.0000 C.ar    1  LIG1        0.0305
      4 C           0.7414    0.3660    0.0000 C.ar    1  LIG1        0.0240
      5 C           0.0269    0.7785    0.0000 C.ar    1  LIG1        0.2914
      6 O           0.0269    1.6035    0.0000 O.2     1  LIG1       -0.2642
      7 N          -0.6876    0.3660    0.0000 N.ar    1  LIG1       -0.0885
      8 N          -0.6876   -0.4590    0.0000 N.ar    1  LIG1       -0.0624
      9 H           1.1015   -2.0770    0.0000 H       1  LIG1        0.0473
     10 H          -0.5316   -2.0912   -0.9121 H       1  LIG1        0.0473
     11 H          -0.5033   -2.0712    0.9370 H       1  LIG1        0.0473
     12 H           1.6953   -1.0098    0.0000 H       1  LIG1        0.0828
     13 H           1.6953    0.9168    0.0000 H       1  LIG1        0.0688
@<TRIPOS>BOND
     1     1     2    1
     2     2     3   ar
     3     3     4   ar
     4     4     5   ar
     5     5     6    2
     6     5     7   ar
     7     7     8   ar
     8     2     8   ar
     9     1     9    1
    10     1    10    1
    11     1    11    1
    12     3    12    1
    13     4    13    1
