@<TRIPOS>MOLECULE
O=c1[nH]cco1
 9 9 0 0 0
SMALL
GASTEIGER
Energy = 0

@<TRIPOS>ATOM
      1 O          -1.2132   -0.0162    0.0000 O.2     1  LIG1       -0.2229
      2 C          -0.3882   -0.0162    0.0000 C.ar    1  LIG1        0.4176
      3 N           0.0967   -0.6837    0.0000 N.ar    1  LIG1       -0.2951
      4 C           0.8813   -0.4287    0.0000 C.ar    1  LIG1        0.0429
      5 C           0.8813    0.3963    0.0000 C.ar    1  LIG1        0.1135
      6 O           0.0967    0.6512    0.0000 O.2     1  LIG1       -0.4161
      7 H          -0.2378   -1.7132    0.0000 H       1  LIG1        0.1715
      8 H           1.7725   -1.0761    0.0000 H       1  LIG1        0.0840
      9 H           1.7724    1.0438    0.0000 H       1  LIG1        0.1046
@<TRIPOS>BOND
     1     1     2    2
     2     2     3   ar
     3     3     4   ar
     4     4     5   ar
     5     5     6   ar
     6     2     6   ar
     7     3     7    1
     8     4     8    1
     9     5     9    1
