@<TRIPOS>MOLECULE
Cn1nnc2c[nH]cc2c1=O
 17 18 0 0 0
SMALL
GASTEIGER
Energy = 0

@<TRIPOS>ATOM
      1 C           1.7328   -0.5844    0.0000 C.3     1  LIG1        0.0356
      2 N           1.0183   -0.1719    0.0000 N.ar    1  LIG1       -0.2135
      3 N           1.0183    0.6531    0.0000 N.ar    1  LIG1       -0.0623
      4 N           0.3039    1.0656    0.0000 N.ar    1  LIG1       -0.1293
      5 C          -0.4106    0.6531    0.0000 C.ar    1  LIG1        0.1173
      6 C          -1.1952    0.9080    0.0000 C.ar    1  LIG1        0.0299
      7 N          -1.6801    0.2406    0.0000 N.ar    1  LIG1       -0.3645
      8 C          -1.1952   -0.4269    0.0000 C.ar    1  LIG1        0.0163
      9 C          -0.4106   -0.1719    0.0000 C.ar    1  LIG1        0.0853
     10 C           0.3039   -0.5844    0.0000 C.ar    1  LIG1        0.2790
     11 O           0.3039   -1.4094    0.0000 O.2     1  LIG1       -0.2654
     12 H           2.5996    0.1560    0.0000 H       1  LIG1        0.0474
     13 H           1.7954   -1.2654   -0.9121 H       1  LIG1        0.0474
     14 H           1.7922   -1.2310    0.9370 H       1  LIG1        0.0474
     15 H          -1.5356    1.9556    0.0000 H       1  LIG1        0.0829
     16 H          -2.7626    0.2406    0.0000 H       1  LIG1        0.1648
     17 H          -1.5356   -1.4745    0.0000 H       1  LIG1        0.0815
@<TRIPOS>BOND
     1     1     2    1
     2     2     3   ar
     3     3     4   ar
     4     4     5   ar
     5     5     6   ar
     6     6     7   ar
     7     7     8   ar
     8     8     9   ar
     9     5     9   ar
    10     9    10   ar
    11     2    10   ar
    12    10    11    2
    13     1    12    1
    14     1    13    1
    15     1    14    1
    16     6    15    1
    17     7    16    1
    18     8    17    1
