@<TRIPOS>MOLECULE
Cn1cnc2occc12
 15 16 0 0 0
SMALL
GASTEIGER
Energy = 0

@<TRIPOS>ATOM
      1 C           0.9320   -1.3247    0.0000 C.3     1  LIG1        0.0134
      2 N           0.6770   -0.5401    0.0000 N.ar    1  LIG1       -0.3305
      3 C           1.1620    0.1273    0.0000 C.ar    1  LIG1        0.1001
      4 N           0.6770    0.7948    0.0000 N.ar    1  LIG1       -0.2012
      5 C          -0.1076    0.5398    0.0000 C.ar    1  LIG1        0.2454
      6 C          -0.1076   -0.2852    0.0000 C.ar    1  LIG1        0.1083
      7 C          -0.8922   -0.5401    0.0000 C.ar    1  LIG1        0.0021
      8 C          -1.3771    0.1273    0.0000 C.ar    1  LIG1        0.0965
      9 O          -0.8922    0.7948    0.0000 O.2     1  LIG1       -0.4439
     10 H           2.0716   -1.3545    0.0000 H       1  LIG1        0.0456
     11 H           0.5229   -1.8727   -0.9121 H       1  LIG1        0.0456
     12 H           0.5435   -1.8450    0.9370 H       1  LIG1        0.0456
     13 H           2.2635    0.1273    0.0000 H       1  LIG1        0.1030
     14 H          -1.2326   -1.5877    0.0000 H       1  LIG1        0.0670
     15 H          -2.4786    0.1273    0.0000 H       1  LIG1        0.1031
@<TRIPOS>BOND
     1     1     2    1
     2     2     3   ar
     3     3     4   ar
     4     4     5   ar
     5     5     6   ar
     6     2     6   ar
     7     6     7   ar
     8     7     8   ar
     9     8     9   ar
    10     5     9   ar
    11     1    10    1
    12     1    11    1
    13     1    12    1
    14     3    13    1
    15     7    14    1
    16     8    15    1
