@<TRIPOS>MOLECULE
Cn1cncc2cnnc12
 16 17 0 0 0
SMALL
GASTEIGER
Energy = 0

@<TRIPOS>ATOM
      1 C           0.5103   -1.4785    0.0000 C.3     1  LIG1        0.0146
      2 N           0.5103   -0.6535    0.0000 N.ar    1  LIG1       -0.3179
      3 C           1.2248   -0.2410    0.0000 C.ar    1  LIG1        0.0971
      4 N           1.2248    0.5840    0.0000 N.ar    1  LIG1       -0.2447
      5 C           0.5103    0.9965    0.0000 C.ar    1  LIG1        0.0414
      6 C          -0.2042    0.5840    0.0000 C.ar    1  LIG1        0.0571
      7 C          -0.9888    0.8390    0.0000 C.ar    1  LIG1        0.0621
      8 N          -1.4737    0.1715    0.0000 N.ar    1  LIG1       -0.1549
      9 N          -0.9888   -0.4959    0.0000 N.ar    1  LIG1       -0.1307
     10 C          -0.2042   -0.2410    0.0000 C.ar    1  LIG1        0.1667
     11 H           1.5849   -1.8590    0.0000 H       1  LIG1        0.0457
     12 H          -0.0482   -1.8732   -0.9121 H       1  LIG1        0.0457
     13 H          -0.0199   -1.8532    0.9370 H       1  LIG1        0.0457
     14 H           2.1787   -0.7918    0.0000 H       1  LIG1        0.1029
     15 H           0.5103    2.0980    0.0000 H       1  LIG1        0.0838
     16 H          -1.3292    1.8866    0.0000 H       1  LIG1        0.0856
@<TRIPOS>BOND
     1     1     2    1
     2     2     3   ar
     3     3     4   ar
     4     4     5   ar
     5     5     6   ar
     6     6     7   ar
     7     7     8   ar
     8     8     9   ar
     9     9    10   ar
    10     2    10   ar
    11     6    10   ar
    12     1    11    1
    13     1    12    1
    14     1    13    1
    15     3    14    1
    16     5    15    1
    17     7    16    1
