@<TRIPOS>MOLECULE
c1ncc2cnncc2n1
 14 15 0 0 0
SMALL
GASTEIGER
Energy = 0

@<TRIPOS>ATOM
      1 C           1.4401   -0.4061    0.0000 C.ar    1  LIG1        0.1166
      2 N           1.4401    0.4189    0.0000 N.ar    1  LIG1       -0.2430
      3 C           0.7256    0.8314    0.0000 C.ar    1  LIG1        0.0400
      4 C           0.0111    0.4189    0.0000 C.ar    1  LIG1        0.0398
      5 C          -0.7033    0.8314    0.0000 C.ar    1  LIG1        0.0606
      6 N          -1.4178    0.4189    0.0000 N.ar    1  LIG1       -0.1569
      7 N          -1.4178   -0.4061    0.0000 N.ar    1  LIG1       -0.1555
      8 C          -0.7033   -0.8186    0.0000 C.ar    1  LIG1        0.0760
      9 C           0.0111   -0.4061    0.0000 C.ar    1  LIG1        0.0954
     10 N           0.7256   -0.8186    0.0000 N.ar    1  LIG1       -0.2338
     11 H           2.3940   -0.9569    0.0000 H       1  LIG1        0.1047
     12 H           0.7256    1.9329    0.0000 H       1  LIG1        0.0837
     13 H          -0.7033    1.9329    0.0000 H       1  LIG1        0.0855
     14 H          -0.7033   -1.9201    0.0000 H       1  LIG1        0.0870
@<TRIPOS>BOND
     1     1     2   ar
     2     2     3   ar
     3     3     4   ar
     4     4     5   ar
     5     5     6   ar
     6     6     7   ar
     7     7     8   ar
     8     8     9   ar
     9     4     9   ar
    10     9    10   ar
    11     1    10   ar
    12     1    11    1
    13     3    12    1
    14     5    13    1
    15     8    14    1
