@<TRIPOS>MOLECULE
Cn1cnc2nncn2c1=O
 16 17 0 0 0
SMALL
GASTEIGER
Energy = 0

@<TRIPOS>ATOM
      1 C           1.7687   -0.5856    0.0000 C.3     1  LIG1        0.0175
      2 N           1.0542   -0.1731    0.0000 N.ar    1  LIG1       -0.2870
      3 C           1.0542    0.6519    0.0000 C.ar    1  LIG1        0.1033
      4 N           0.3397    1.0644    0.0000 N.ar    1  LIG1       -0.2007
      5 C          -0.3747    0.6519    0.0000 C.ar    1  LIG1        0.2606
      6 N          -1.1594    0.9069    0.0000 N.ar    1  LIG1       -0.1085
      7 N          -1.6443    0.2394    0.0000 N.ar    1  LIG1       -0.1355
      8 C          -1.1594   -0.4280    0.0000 C.ar    1  LIG1        0.1298
      9 N          -0.3747   -0.1731    0.0000 N.ar    1  LIG1       -0.2174
     10 C           0.3397   -0.5856    0.0000 C.ar    1  LIG1        0.3380
     11 O           0.3397   -1.4106    0.0000 O.2     1  LIG1       -0.2458
     12 H           2.6355    0.1548    0.0000 H       1  LIG1        0.0457
     13 H           1.8313   -1.2666   -0.9121 H       1  LIG1        0.0457
     14 H           1.8281   -1.2322    0.9370 H       1  LIG1        0.0457
     15 H           2.0081    1.2027    0.0000 H       1  LIG1        0.1031
     16 H          -1.4998   -1.4756    0.0000 H       1  LIG1        0.1053
@<TRIPOS>BOND
     1     1     2    1
     2     2     3   ar
     3     3     4   ar
     4     4     5   ar
     5     5     6   ar
     6     6     7   ar
     7     7     8   ar
     8     8     9   ar
     9     5     9   ar
    10     9    10   ar
    11     2    10   ar
    12    10    11    2
    13     1    12    1
    14     1    13    1
    15     1    14    1
    16     3    15    1
    17     8    16    1
