@<TRIPOS>MOLECULE
Cn1c(=O)cn[nH]c1=O
 14 14 0 0 0
SMALL
GASTEIGER
Energy = 0

@<TRIPOS>ATOM
      1 C          -0.0117   -1.2781    0.0000 C.3     1  LIG1        0.0196
      2 N          -0.0117   -0.4531    0.0000 N.ar    1  LIG1       -0.2618
      3 C           0.7028   -0.0406    0.0000 C.ar    1  LIG1        0.3453
      4 O           1.4173   -0.4531    0.0000 O.2     1  LIG1       -0.2450
      5 N           0.7028    0.7844    0.0000 N.ar    1  LIG1       -0.2280
      6 N          -0.0117    1.1969    0.0000 N.ar    1  LIG1       -0.1728
      7 C          -0.7262    0.7844    0.0000 C.ar    1  LIG1        0.1124
      8 C          -0.7262   -0.0406    0.0000 C.ar    1  LIG1        0.2747
      9 O          -1.4406   -0.4531    0.0000 O.2     1  LIG1       -0.2659
     10 H           1.0629   -1.6586    0.0000 H       1  LIG1        0.0458
     11 H          -0.5702   -1.6728   -0.9121 H       1  LIG1        0.0458
     12 H          -0.5419   -1.6528    0.9370 H       1  LIG1        0.0458
     13 H           1.6403    1.3257    0.0000 H       1  LIG1        0.1936
     14 H          -1.6801    1.3352    0.0000 H       1  LIG1        0.0903
@<TRIPOS>BOND
     1     1     2    1
     2     2     3   ar
     3     3     4    2
     4     3     5   ar
     5     5     6   ar
     6     6     7   ar
     7     7     8   ar
     8     2     8   ar
     9     8     9    2
    10     1    10    1
    11     1    11    1
    12     1    12    1
    13     5    13    1
    14     7    14    1
