@<TRIPOS>MOLECULE
c1cc2ccsn2c1
 13 14 0 0 0
SMALL
GASTEIGER
Energy = 0

@<TRIPOS>ATOM
      1 S           0.6514   -0.5472    0.0000 S.2     1  LIG1       -0.0148
      2 C           1.1363    0.1203    0.0000 C.ar    1  LIG1       -0.0052
      3 C           0.6514    0.7877    0.0000 C.ar    1  LIG1       -0.0294
      4 C          -0.1332    0.5328    0.0000 C.ar    1  LIG1        0.0536
      5 C          -0.9178    0.7877    0.0000 C.ar    1  LIG1       -0.0359
      6 C          -1.4027    0.1203    0.0000 C.ar    1  LIG1       -0.0426
      7 C          -0.9178   -0.5472    0.0000 C.ar    1  LIG1        0.0175
      8 N          -0.1332   -0.2922    0.0000 N.ar    1  LIG1       -0.2874
      9 H           2.2378    0.1203    0.0000 H       1  LIG1        0.0708
     10 H           0.9918    1.8353    0.0000 H       1  LIG1        0.0644
     11 H          -1.2582    1.8353    0.0000 H       1  LIG1        0.0639
     12 H          -2.5042    0.1203    0.0000 H       1  LIG1        0.0633
     13 H          -1.2582   -1.5948    0.0000 H       1  LIG1        0.0819
@<TRIPOS>BOND
     1     1     2   ar
     2     2     3   ar
     3     3     4   ar
     4     4     5   ar
     5     5     6   ar
     6     6     7   ar
     7     7     8   ar
     8     1     8   ar
     9     4     8   ar
    10     2     9    1
    11     3    10    1
    12     5    11    1
    13     6    12    1
    14     7    13    1
