@<TRIPOS>MOLECULE
O=c1ccn2ccccn12
 16 17 0 0 0
SMALL
GASTEIGER
Energy = 0

@<TRIPOS>ATOM
      1 O           1.0455   -1.2707    0.0000 O.2     1  LIG1       -0.2659
      2 C           0.7906   -0.4861    0.0000 C.ar    1  LIG1        0.2715
      3 C           1.2755    0.1814    0.0000 C.ar    1  LIG1        0.0227
      4 C           0.7906    0.8488    0.0000 C.ar    1  LIG1        0.0329
      5 N           0.0059    0.5939    0.0000 N.ar    1  LIG1       -0.2601
      6 C          -0.7085    1.0064    0.0000 C.ar    1  LIG1        0.0277
      7 C          -1.4230    0.5939    0.0000 C.ar    1  LIG1       -0.0422
      8 C          -1.4230   -0.2311    0.0000 C.ar    1  LIG1       -0.0421
      9 C          -0.7085   -0.6436    0.0000 C.ar    1  LIG1        0.0315
     10 N           0.0059   -0.2311    0.0000 N.ar    1  LIG1       -0.2205
     11 H           2.3770    0.1814    0.0000 H       1  LIG1        0.0687
     12 H           1.1310    1.8964    0.0000 H       1  LIG1        0.0831
     13 H          -0.7085    2.1079    0.0000 H       1  LIG1        0.0829
     14 H          -2.3769    1.1447    0.0000 H       1  LIG1        0.0633
     15 H          -2.3769   -0.7819    0.0000 H       1  LIG1        0.0633
     16 H          -0.7085   -1.7451    0.0000 H       1  LIG1        0.0831
@<TRIPOS>BOND
     1     1     2    2
     2     2     3   ar
     3     3     4   ar
     4     4     5   ar
     5     5     6   ar
     6     6     7   ar
     7     7     8   ar
     8     8     9   ar
     9     9    10   ar
    10     2    10   ar
    11     5    10   ar
    12     3    11    1
    13     4    12    1
    14     6    13    1
    15     7    14    1
    16     8    15    1
    17     9    16    1
