@<TRIPOS>MOLECULE
O=c1ccn2ncncc2c1
 16 17 0 0 0
SMALL
GASTEIGER
Energy = 0

@<TRIPOS>ATOM
      1 O           1.9322   -0.7437    0.0000 O.2     1  LIG1       -0.2878
      2 C           1.2177   -0.3312    0.0000 C.ar    1  LIG1        0.1825
      3 C           1.2177    0.4938    0.0000 C.ar    1  LIG1        0.0033
      4 C           0.5032    0.9063    0.0000 C.ar    1  LIG1        0.0335
      5 N          -0.2112    0.4938    0.0000 N.ar    1  LIG1       -0.2368
      6 N          -0.9257    0.9063    0.0000 N.ar    1  LIG1       -0.1550
      7 C          -1.6402    0.4938    0.0000 C.ar    1  LIG1        0.1366
      8 N          -1.6402   -0.3312    0.0000 N.ar    1  LIG1       -0.2399
      9 C          -0.9257   -0.7437    0.0000 C.ar    1  LIG1        0.0549
     10 C          -0.2112   -0.3312    0.0000 C.ar    1  LIG1        0.0871
     11 C           0.5032   -0.7437    0.0000 C.ar    1  LIG1        0.0120
     12 H           2.1716    1.0446    0.0000 H       1  LIG1        0.0671
     13 H           0.5032    2.0078    0.0000 H       1  LIG1        0.0831
     14 H          -2.5941    1.0446    0.0000 H       1  LIG1        0.1065
     15 H          -0.9257   -1.8452    0.0000 H       1  LIG1        0.0852
     16 H           0.5032   -1.8452    0.0000 H       1  LIG1        0.0677
@<TRIPOS>BOND
     1     1     2    2
     2     2     3   ar
     3     3     4   ar
     4     4     5   ar
     5     5     6   ar
     6     6     7   ar
     7     7     8   ar
     8     8     9   ar
     9     9    10   ar
    10     5    10   ar
    11    10    11   ar
    12     2    11   ar
    13     3    12    1
    14     4    13    1
    15     7    14    1
    16     9    15    1
    17    11    16    1
