@<TRIPOS>MOLECULE
Cn1ccc2c(=O)[nH]ccc12
 19 20 0 0 0
SMALL
GASTEIGER
Energy = 0

@<TRIPOS>ATOM
      1 C           1.1654   -1.5124    0.0000 C.3     1  LIG1        0.0119
      2 N           0.9104   -0.7278    0.0000 N.ar    1  LIG1       -0.3495
      3 C           1.3953   -0.0603    0.0000 C.ar    1  LIG1        0.0056
      4 C           0.9104    0.6071    0.0000 C.ar    1  LIG1       -0.0313
      5 C           0.1258    0.3522    0.0000 C.ar    1  LIG1        0.0641
      6 C           0.1258   -0.4728    0.0000 C.ar    1  LIG1        0.0554
      7 C          -0.5887   -0.8853    0.0000 C.ar    1  LIG1       -0.0214
      8 C          -1.3031   -0.4728    0.0000 C.ar    1  LIG1        0.0069
      9 N          -1.3031    0.3522    0.0000 N.ar    1  LIG1       -0.3285
     10 C          -0.5887    0.7647    0.0000 C.ar    1  LIG1        0.2579
     11 O          -0.5887    1.5897    0.0000 O.2     1  LIG1       -0.2672
     12 H           2.3050   -1.5422    0.0000 H       1  LIG1        0.0456
     13 H           0.7563   -2.0604   -0.9121 H       1  LIG1        0.0456
     14 H           0.7769   -2.0327    0.9370 H       1  LIG1        0.0456
     15 H           2.4968   -0.0603    0.0000 H       1  LIG1        0.0809
     16 H           1.2508    1.6547    0.0000 H       1  LIG1        0.0640
     17 H          -0.5887   -1.9868    0.0000 H       1  LIG1        0.0653
     18 H          -2.2570   -1.0235    0.0000 H       1  LIG1        0.0808
     19 H          -2.2406    0.8934    0.0000 H       1  LIG1        0.1683
@<TRIPOS>BOND
     1     1     2    1
     2     2     3   ar
     3     3     4   ar
     4     4     5   ar
     5     5     6   ar
     6     2     6   ar
     7     6     7   ar
     8     7     8   ar
     9     8     9   ar
    10     9    10   ar
    11     5    10   ar
    12    10    11    2
    13     1    12    1
    14     1    13    1
    15     1    14    1
    16     3    15    1
    17     4    16    1
    18     7    17    1
    19     8    18    1
    20     9    19    1
