@<TRIPOS>MOLECULE
Cn1ccc2nncn12
 15 16 0 0 0
SMALL
GASTEIGER
Energy = 0

@<TRIPOS>ATOM
      1 C           0.9538   -1.2947    0.0000 C.3     1  LIG1        0.0288
      2 N           0.6989   -0.5101    0.0000 N.ar    1  LIG1       -0.2873
      3 C           1.1838    0.1573    0.0000 C.ar    1  LIG1        0.0259
      4 C           0.6989    0.8248    0.0000 C.ar    1  LIG1        0.0020
      5 C          -0.0857    0.5698    0.0000 C.ar    1  LIG1        0.1772
      6 N          -0.8704    0.8248    0.0000 N.ar    1  LIG1       -0.1282
      7 N          -1.3553    0.1573    0.0000 N.ar    1  LIG1       -0.1357
      8 C          -0.8704   -0.5101    0.0000 C.ar    1  LIG1        0.1402
      9 N          -0.0857   -0.2552    0.0000 N.ar    1  LIG1       -0.2206
     10 H           2.0934   -1.3246    0.0000 H       1  LIG1        0.0472
     11 H           0.5446   -1.8426   -0.9121 H       1  LIG1        0.0472
     12 H           0.5653   -1.8149    0.9370 H       1  LIG1        0.0472
     13 H           2.2853    0.1573    0.0000 H       1  LIG1        0.0826
     14 H           1.0393    1.8724    0.0000 H       1  LIG1        0.0670
     15 H          -1.2108   -1.5577    0.0000 H       1  LIG1        0.1066
@<TRIPOS>BOND
     1     1     2    1
     2     2     3   ar
     3     3     4   ar
     4     4     5   ar
     5     5     6   ar
     6     6     7   ar
     7     7     8   ar
     8     8     9   ar
     9     2     9   ar
    10     5     9   ar
    11     1    10    1
    12     1    11    1
    13     1    12    1
    14     3    13    1
    15     4    14    1
    16     8    15    1
