@<TRIPOS>MOLECULE
c1ccc2cnccc2c1
 17 18 0 0 0
SMALL
GASTEIGER
Energy = 0

@<TRIPOS>ATOM
      1 C           1.4523   -0.4192    0.0000 C.ar    1  LIG1       -0.0612
      2 C           1.4523    0.4058    0.0000 C.ar    1  LIG1       -0.0611
      3 C           0.7378    0.8183    0.0000 C.ar    1  LIG1       -0.0526
      4 C           0.0234    0.4058    0.0000 C.ar    1  LIG1        0.0002
      5 C          -0.6911    0.8183    0.0000 C.ar    1  LIG1        0.0352
      6 N          -1.4056    0.4058    0.0000 N.ar    1  LIG1       -0.2626
      7 C          -1.4056   -0.4192    0.0000 C.ar    1  LIG1        0.0281
      8 C          -0.6911   -0.8317    0.0000 C.ar    1  LIG1       -0.0359
      9 C           0.0234   -0.4192    0.0000 C.ar    1  LIG1       -0.0150
     10 C           0.7378   -0.8317    0.0000 C.ar    1  LIG1       -0.0539
     11 H           2.4062   -0.9700    0.0000 H       1  LIG1        0.0618
     12 H           2.4062    0.9566    0.0000 H       1  LIG1        0.0618
     13 H           0.7378    1.9198    0.0000 H       1  LIG1        0.0624
     14 H          -0.6911    1.9198    0.0000 H       1  LIG1        0.0836
     15 H          -2.3595   -0.9700    0.0000 H       1  LIG1        0.0830
     16 H          -0.6911   -1.9332    0.0000 H       1  LIG1        0.0639
     17 H           0.7378   -1.9332    0.0000 H       1  LIG1        0.0624
@<TRIPOS>BOND
     1     1     2   ar
     2     2     3   ar
     3     3     4   ar
     4     4     5   ar
     5     5     6   ar
     6     6     7   ar
     7     7     8   ar
     8     8     9   ar
     9     4     9   ar
    10     9    10   ar
    11     1    10   ar
    12     1    11    1
    13     2    12    1
    14     3    13    1
    15     5    14    1
    16     7    15    1
    17     8    16    1
    18    10    17    1
