@<TRIPOS>MOLECULE
c1noc2ncncc12
 12 13 0 0 0
SMALL
GASTEIGER
Energy = 0

@<TRIPOS>ATOM
      1 O           0.9202   -0.6379    0.0000 O.2     1  LIG1       -0.3344
      2 N           1.4051    0.0295    0.0000 N.ar    1  LIG1       -0.0835
      3 C           0.9202    0.6970    0.0000 C.ar    1  LIG1        0.0809
      4 C           0.1356    0.4420    0.0000 C.ar    1  LIG1        0.0786
      5 C          -0.5789    0.8545    0.0000 C.ar    1  LIG1        0.0432
      6 N          -1.2934    0.4420    0.0000 N.ar    1  LIG1       -0.2428
      7 C          -1.2934   -0.3830    0.0000 C.ar    1  LIG1        0.1198
      8 N          -0.5789   -0.7955    0.0000 N.ar    1  LIG1       -0.1986
      9 C           0.1356   -0.3830    0.0000 C.ar    1  LIG1        0.2611
     10 H           1.2606    1.7446    0.0000 H       1  LIG1        0.0871
     11 H          -0.5789    1.9560    0.0000 H       1  LIG1        0.0838
     12 H          -2.2473   -0.9338    0.0000 H       1  LIG1        0.1048
@<TRIPOS>BOND
     1     1     2   ar
     2     2     3   ar
     3     3     4   ar
     4     4     5   ar
     5     5     6   ar
     6     6     7   ar
     7     7     8   ar
     8     8     9   ar
     9     1     9   ar
    10     4     9   ar
    11     3    10    1
    12     5    11    1
    13     7    12    1
