@<TRIPOS>MOLECULE
Cn1cnc2nocc12
 14 15 0 0 0
SMALL
GASTEIGER
Energy = 0

@<TRIPOS>ATOM
      1 C           0.9634   -1.3156    0.0000 C.3     1  LIG1        0.0134
      2 N           0.7085   -0.5310    0.0000 N.ar    1  LIG1       -0.3294
      3 C           1.1934    0.1364    0.0000 C.ar    1  LIG1        0.0987
      4 N           0.7085    0.8039    0.0000 N.ar    1  LIG1       -0.2136
      5 C          -0.0761    0.5489    0.0000 C.ar    1  LIG1        0.2200
      6 N          -0.8607    0.8039    0.0000 N.ar    1  LIG1       -0.0566
      7 O          -1.3457    0.1364    0.0000 O.2     1  LIG1       -0.3587
      8 C          -0.8607   -0.5310    0.0000 C.ar    1  LIG1        0.1499
      9 C          -0.0761   -0.2761    0.0000 C.ar    1  LIG1        0.1285
     10 H           2.1030   -1.3455    0.0000 H       1  LIG1        0.0456
     11 H           0.5542   -1.8635   -0.9121 H       1  LIG1        0.0456
     12 H           0.5749   -1.8358    0.9370 H       1  LIG1        0.0456
     13 H           2.2949    0.1364    0.0000 H       1  LIG1        0.1029
     14 H          -1.2010   -1.5786    0.0000 H       1  LIG1        0.1080
@<TRIPOS>BOND
     1     1     2    1
     2     2     3   ar
     3     3     4   ar
     4     4     5   ar
     5     5     6   ar
     6     6     7   ar
     7     7     8   ar
     8     8     9   ar
     9     2     9   ar
    10     5     9   ar
    11     1    10    1
    12     1    11    1
    13     1    12    1
    14     3    13    1
    15     8    14    1
