@<TRIPOS>MOLECULE
O=c1[nH]ccc2[nH]ncc12
 15 16 0 0 0
SMALL
GASTEIGER
Energy = 0

@<TRIPOS>ATOM
      1 O          -0.5025   -1.4510    0.0000 O.2     1  LIG1       -0.2671
      2 C          -0.5025   -0.6260    0.0000 C.ar    1  LIG1        0.2594
      3 N          -1.2170   -0.2135    0.0000 N.ar    1  LIG1       -0.3285
      4 C          -1.2170    0.6115    0.0000 C.ar    1  LIG1        0.0070
      5 C          -0.5025    1.0240    0.0000 C.ar    1  LIG1       -0.0201
      6 C           0.2120    0.6115    0.0000 C.ar    1  LIG1        0.0723
      7 C           0.2120   -0.2135    0.0000 C.ar    1  LIG1        0.0837
      8 C           0.9966   -0.4684    0.0000 C.ar    1  LIG1        0.0621
      9 N           1.4815    0.1990    0.0000 N.ar    1  LIG1       -0.1810
     10 N           0.9966    0.8665    0.0000 N.ar    1  LIG1       -0.2767
     11 H          -2.1545   -0.7548    0.0000 H       1  LIG1        0.1683
     12 H          -2.1709    1.1623    0.0000 H       1  LIG1        0.0808
     13 H          -0.5025    2.1255    0.0000 H       1  LIG1        0.0653
     14 H           1.3370   -1.5160    0.0000 H       1  LIG1        0.0856
     15 H           1.3311    1.8960    0.0000 H       1  LIG1        0.1889
@<TRIPOS>BOND
     1     1     2    2
     2     2     3   ar
     3     3     4   ar
     4     4     5   ar
     5     5     6   ar
     6     6     7   ar
     7     2     7   ar
     8     7     8   ar
     9     8     9   ar
    10     9    10   ar
    11     6    10   ar
    12     3    11    1
    13     4    12    1
    14     5    13    1
    15     8    14    1
    16    10    15    1
