@<TRIPOS>MOLECULE
Cn1cnc(=O)[nH]1
 12 12 0 0 0
SMALL
GASTEIGER
Energy = 0

@<TRIPOS>ATOM
      1 C           1.3343    0.7741    0.0000 C.3     1  LIG1        0.0299
      2 N           0.6669    0.2891    0.0000 N.ar    1  LIG1       -0.2748
      3 N          -0.1177    0.5441    0.0000 N.ar    1  LIG1       -0.2462
      4 C          -0.6026   -0.1234    0.0000 C.ar    1  LIG1        0.3619
      5 O          -1.4276   -0.1234    0.0000 O.2     1  LIG1       -0.2432
      6 N          -0.1177   -0.7908    0.0000 N.ar    1  LIG1       -0.1810
      7 C           0.6669   -0.5359    0.0000 C.ar    1  LIG1        0.1156
      8 H           1.0104    1.8671    0.0000 H       1  LIG1        0.0472
      9 H           1.9819    0.5544   -0.9121 H       1  LIG1        0.0472
     10 H           1.9492    0.5655    0.9370 H       1  LIG1        0.0472
     11 H          -0.4522    1.5736    0.0000 H       1  LIG1        0.1917
     12 H           1.5580   -1.1834    0.0000 H       1  LIG1        0.1044
@<TRIPOS>BOND
     1     1     2    1
     2     2     3   ar
     3     3     4   ar
     4     4     5    2
     5     4     6   ar
     6     6     7   ar
     7     2     7   ar
     8     1     8    1
     9     1     9    1
    10     1    10    1
    11     3    11    1
    12     7    12    1
