@<TRIPOS>MOLECULE
Cn1cccc1
 13 13 0 0 0
SMALL
GASTEIGER
Energy = 0

@<TRIPOS>ATOM
      1 C          -1.2603   -0.0000    0.0000 C.3     1  LIG1        0.0113
      2 N          -0.4353   -0.0000    0.0000 N.ar    1  LIG1       -0.3562
      3 C           0.0497   -0.6674    0.0000 C.ar    1  LIG1        0.0043
      4 C           0.8343   -0.4125    0.0000 C.ar    1  LIG1       -0.0442
      5 C           0.8343    0.4125    0.0000 C.ar    1  LIG1       -0.0442
      6 C           0.0497    0.6674    0.0000 C.ar    1  LIG1        0.0043
      7 H          -1.6408   -1.0746    0.0000 H       1  LIG1        0.0455
      8 H          -1.6550    0.5585   -0.9121 H       1  LIG1        0.0455
      9 H          -1.6350    0.5302    0.9370 H       1  LIG1        0.0455
     10 H          -0.2906   -1.7150    0.0000 H       1  LIG1        0.0809
     11 H           1.7254   -1.0600    0.0000 H       1  LIG1        0.0632
     12 H           1.7254    1.0600    0.0000 H       1  LIG1        0.0632
     13 H          -0.2906    1.7150    0.0000 H       1  LIG1        0.0809
@<TRIPOS>BOND
     1     1     2    1
     2     2     3   ar
     3     3     4   ar
     4     4     5   ar
     5     5     6   ar
     6     2     6   ar
     7     1     7    1
     8     1     8    1
     9     1     9    1
    10     3    10    1
    11     4    11    1
    12     5    12    1
    13     6    13    1
