@<TRIPOS>MOLECULE
c1cc2cnncc2nn1
 14 15 0 0 0
SMALL
GASTEIGER
Energy = 0

@<TRIPOS>ATOM
      1 C           1.4401    0.4318    0.0000 C.ar    1  LIG1        0.0506
      2 C           0.7256    0.8443    0.0000 C.ar    1  LIG1       -0.0311
      3 C           0.0111    0.4318    0.0000 C.ar    1  LIG1        0.0249
      4 C          -0.7033    0.8443    0.0000 C.ar    1  LIG1        0.0592
      5 N          -1.4178    0.4318    0.0000 N.ar    1  LIG1       -0.1570
      6 N          -1.4178   -0.3932    0.0000 N.ar    1  LIG1       -0.1555
      7 C          -0.7033   -0.8057    0.0000 C.ar    1  LIG1        0.0776
      8 C           0.0111   -0.3932    0.0000 C.ar    1  LIG1        0.1145
      9 N           0.7256   -0.8057    0.0000 N.ar    1  LIG1       -0.1476
     10 N           1.4401   -0.3932    0.0000 N.ar    1  LIG1       -0.1571
     11 H           2.3940    0.9826    0.0000 H       1  LIG1        0.0848
     12 H           0.7256    1.9458    0.0000 H       1  LIG1        0.0640
     13 H          -0.7033    1.9458    0.0000 H       1  LIG1        0.0855
     14 H          -0.7033   -1.9072    0.0000 H       1  LIG1        0.0870
@<TRIPOS>BOND
     1     1     2   ar
     2     2     3   ar
     3     3     4   ar
     4     4     5   ar
     5     5     6   ar
     6     6     7   ar
     7     7     8   ar
     8     3     8   ar
     9     8     9   ar
    10     9    10   ar
    11     1    10   ar
    12     1    11    1
    13     2    12    1
    14     4    13    1
    15     7    14    1
