@<TRIPOS>MOLECULE
O=c1ncnc2[nH]c(=O)[nH]cc12
 16 17 0 0 0
SMALL
GASTEIGER
Energy = 0

@<TRIPOS>ATOM
      1 O           2.0006   -0.8972    0.0000 O.2     1  LIG1       -0.2467
      2 C           1.2861   -0.4847    0.0000 C.ar    1  LIG1        0.3256
      3 N           1.2861    0.3403    0.0000 N.ar    1  LIG1       -0.3137
      4 C           0.5717    0.7528    0.0000 C.ar    1  LIG1        0.0223
      5 C          -0.1428    0.3403    0.0000 C.ar    1  LIG1        0.0995
      6 C          -0.8573    0.7528    0.0000 C.ar    1  LIG1        0.2837
      7 O          -0.8573    1.5778    0.0000 O.2     1  LIG1       -0.2650
      8 N          -1.5718    0.3403    0.0000 N.ar    1  LIG1       -0.1969
      9 C          -1.5718   -0.4847    0.0000 C.ar    1  LIG1        0.1222
     10 N          -0.8573   -0.8972    0.0000 N.ar    1  LIG1       -0.2175
     11 C          -0.1428   -0.4847    0.0000 C.ar    1  LIG1        0.1503
     12 N           0.5717   -0.8972    0.0000 N.ar    1  LIG1       -0.2919
     13 H           2.2236    0.8815    0.0000 H       1  LIG1        0.1698
     14 H           0.5717    1.8543    0.0000 H       1  LIG1        0.0817
     15 H          -2.5257   -1.0355    0.0000 H       1  LIG1        0.1049
     16 H           0.5717   -1.9797    0.0000 H       1  LIG1        0.1718
@<TRIPOS>BOND
     1     1     2    2
     2     2     3   ar
     3     3     4   ar
     4     4     5   ar
     5     5     6   ar
     6     6     7    2
     7     6     8   ar
     8     8     9   ar
     9     9    10   ar
    10    10    11   ar
    11     5    11   ar
    12    11    12   ar
    13     2    12   ar
    14     3    13    1
    15     4    14    1
    16     9    15    1
    17    12    16    1
