@<TRIPOS>MOLECULE
O=c1ncc2c[nH]nc2[nH]1
 14 15 0 0 0
SMALL
GASTEIGER
Energy = 0

@<TRIPOS>ATOM
      1 O           1.7507    0.7087    0.0000 O.2     1  LIG1       -0.2447
      2 C           1.0363    0.2962    0.0000 C.ar    1  LIG1        0.3474
      3 N           0.3218    0.7087    0.0000 N.ar    1  LIG1       -0.2892
      4 C          -0.3927    0.2962    0.0000 C.ar    1  LIG1        0.1648
      5 N          -1.1773    0.5512    0.0000 N.ar    1  LIG1       -0.1555
      6 N          -1.6622   -0.1163    0.0000 N.ar    1  LIG1       -0.2821
      7 C          -1.1773   -0.7837    0.0000 C.ar    1  LIG1        0.0330
      8 C          -0.3927   -0.5288    0.0000 C.ar    1  LIG1        0.0547
      9 C           0.3218   -0.9413    0.0000 C.ar    1  LIG1        0.0451
     10 N           1.0363   -0.5288    0.0000 N.ar    1  LIG1       -0.2008
     11 H           0.3218    1.7912    0.0000 H       1  LIG1        0.1720
     12 H          -2.7447   -0.1163    0.0000 H       1  LIG1        0.1883
     13 H          -1.5177   -1.8313    0.0000 H       1  LIG1        0.0831
     14 H           0.3218   -2.0428    0.0000 H       1  LIG1        0.0839
@<TRIPOS>BOND
     1     1     2    2
     2     2     3   ar
     3     3     4   ar
     4     4     5   ar
     5     5     6   ar
     6     6     7   ar
     7     7     8   ar
     8     4     8   ar
     9     8     9   ar
    10     9    10   ar
    11     2    10   ar
    12     3    11    1
    13     6    12    1
    14     7    13    1
    15     9    14    1
