@<TRIPOS>MOLECULE
O=c1cccc2sccn12
 15 16 0 0 0
SMALL
GASTEIGER
Energy = 0

@<TRIPOS>ATOM
      1 O           0.6249   -1.5553    0.0000 O.2     1  LIG1       -0.2673
      2 C           0.6249   -0.7303    0.0000 C.ar    1  LIG1        0.2561
      3 C           1.3394   -0.3178    0.0000 C.ar    1  LIG1        0.0034
      4 C           1.3394    0.5072    0.0000 C.ar    1  LIG1       -0.0542
      5 C           0.6249    0.9197    0.0000 C.ar    1  LIG1       -0.0307
      6 C          -0.0895    0.5072    0.0000 C.ar    1  LIG1        0.0871
      7 S          -0.8742    0.7621    0.0000 S.2     1  LIG1       -0.0776
      8 C          -1.3591    0.0947    0.0000 C.ar    1  LIG1       -0.0058
      9 C          -0.8742   -0.5728    0.0000 C.ar    1  LIG1        0.0203
     10 N          -0.0895   -0.3178    0.0000 N.ar    1  LIG1       -0.2776
     11 H           2.2933   -0.8686    0.0000 H       1  LIG1        0.0672
     12 H           2.2933    1.0580    0.0000 H       1  LIG1        0.0620
     13 H           0.6249    2.0212    0.0000 H       1  LIG1        0.0644
     14 H          -2.4606    0.0947    0.0000 H       1  LIG1        0.0709
     15 H          -1.2146   -1.6204    0.0000 H       1  LIG1        0.0819
@<TRIPOS>BOND
     1     1     2    2
     2     2     3   ar
     3     3     4   ar
     4     4     5   ar
     5     5     6   ar
     6     6     7   ar
     7     7     8   ar
     8     8     9   ar
     9     9    10   ar
    10     2    10   ar
    11     6    10   ar
    12     3    11    1
    13     4    12    1
    14     5    13    1
    15     8    14    1
    16     9    15    1
