@<TRIPOS>MOLECULE
c1n[nH]c2cnnnc12
 12 13 0 0 0
SMALL
GASTEIGER
Energy = 0

@<TRIPOS>ATOM
      1 N           0.9576   -0.6701    0.0000 N.ar    1  LIG1       -0.2738
      2 N           1.4425   -0.0027    0.0000 N.ar    1  LIG1       -0.1795
      3 C           0.9576    0.6648    0.0000 C.ar    1  LIG1        0.0770
      4 C           0.1730    0.4098    0.0000 C.ar    1  LIG1        0.1336
      5 N          -0.5415    0.8223    0.0000 N.ar    1  LIG1       -0.1262
      6 N          -1.2560    0.4098    0.0000 N.ar    1  LIG1       -0.0426
      7 N          -1.2560   -0.4152    0.0000 N.ar    1  LIG1       -0.1356
      8 C          -0.5415   -0.8277    0.0000 C.ar    1  LIG1        0.0785
      9 C           0.1730   -0.4152    0.0000 C.ar    1  LIG1        0.1055
     10 H           1.2921   -1.6996    0.0000 H       1  LIG1        0.1890
     11 H           1.2980    1.7124    0.0000 H       1  LIG1        0.0870
     12 H          -0.5415   -1.9292    0.0000 H       1  LIG1        0.0871
@<TRIPOS>BOND
     1     1     2   ar
     2     2     3   ar
     3     3     4   ar
     4     4     5   ar
     5     5     6   ar
     6     6     7   ar
     7     7     8   ar
     8     8     9   ar
     9     1     9   ar
    10     4     9   ar
    11     1    10    1
    12     3    11    1
    13     8    12    1
