@<TRIPOS>MOLECULE
O=c1[nH]nnc2cncnc12
 14 15 0 0 0
SMALL
GASTEIGER
Energy = 0

@<TRIPOS>ATOM
      1 O           0.6167   -1.4749    0.0000 O.2     1  LIG1       -0.2640
      2 C           0.6167   -0.6499    0.0000 C.ar    1  LIG1        0.2937
      3 N           1.3312   -0.2374    0.0000 N.ar    1  LIG1       -0.2228
      4 N           1.3312    0.5876    0.0000 N.ar    1  LIG1       -0.0648
      5 N           0.6167    1.0001    0.0000 N.ar    1  LIG1       -0.1278
      6 C          -0.0978    0.5876    0.0000 C.ar    1  LIG1        0.1364
      7 C          -0.8122    1.0001    0.0000 C.ar    1  LIG1        0.0587
      8 N          -1.5267    0.5876    0.0000 N.ar    1  LIG1       -0.2415
      9 C          -1.5267   -0.2374    0.0000 C.ar    1  LIG1        0.1169
     10 N          -0.8122   -0.6499    0.0000 N.ar    1  LIG1       -0.2283
     11 C          -0.0978   -0.2374    0.0000 C.ar    1  LIG1        0.1596
     12 H           2.2687   -0.7787    0.0000 H       1  LIG1        0.1939
     13 H          -0.8122    2.1016    0.0000 H       1  LIG1        0.0853
     14 H          -2.4806   -0.7882    0.0000 H       1  LIG1        0.1047
@<TRIPOS>BOND
     1     1     2    2
     2     2     3   ar
     3     3     4   ar
     4     4     5   ar
     5     5     6   ar
     6     6     7   ar
     7     7     8   ar
     8     8     9   ar
     9     9    10   ar
    10    10    11   ar
    11     2    11   ar
    12     6    11   ar
    13     3    12    1
    14     7    13    1
    15     9    14    1
