@<TRIPOS>MOLECULE
c1occ2cnncc12
 13 14 0 0 0
SMALL
GASTEIGER
Energy = 0

@<TRIPOS>ATOM
      1 O           1.4249    0.0000    0.0000 O.2     1  LIG1       -0.4697
      2 C           0.9400    0.6674    0.0000 C.ar    1  LIG1        0.1009
      3 C           0.1553    0.4125    0.0000 C.ar    1  LIG1        0.0411
      4 C          -0.5591    0.8250    0.0000 C.ar    1  LIG1        0.0607
      5 N          -1.2736    0.4125    0.0000 N.ar    1  LIG1       -0.1570
      6 N          -1.2736   -0.4125    0.0000 N.ar    1  LIG1       -0.1570
      7 C          -0.5591   -0.8250    0.0000 C.ar    1  LIG1        0.0607
      8 C           0.1553   -0.4125    0.0000 C.ar    1  LIG1        0.0411
      9 C           0.9400   -0.6674    0.0000 C.ar    1  LIG1        0.1009
     10 H           1.2804    1.7150    0.0000 H       1  LIG1        0.1036
     11 H          -0.5591    1.9265    0.0000 H       1  LIG1        0.0855
     12 H          -0.5591   -1.9265    0.0000 H       1  LIG1        0.0855
     13 H           1.2804   -1.7150    0.0000 H       1  LIG1        0.1036
@<TRIPOS>BOND
     1     1     2   ar
     2     2     3   ar
     3     3     4   ar
     4     4     5   ar
     5     5     6   ar
     6     6     7   ar
     7     7     8   ar
     8     3     8   ar
     9     8     9   ar
    10     1     9   ar
    11     2    10    1
    12     4    11    1
    13     7    12    1
    14     9    13    1
