@<TRIPOS>MOLECULE
Cn1nc2ccccc2cc1=O
 20 21 0 0 0
SMALL
GASTEIGER
Energy = 0

@<TRIPOS>ATOM
      1 C           1.7206    0.8304    0.0000 C.3     1  LIG1        0.0340
      2 N           1.0061    0.4179    0.0000 N.ar    1  LIG1       -0.2320
      3 N           0.2916    0.8304    0.0000 N.ar    1  LIG1       -0.1685
      4 C          -0.4228    0.4179    0.0000 C.ar    1  LIG1        0.0916
      5 C          -1.1373    0.8304    0.0000 C.ar    1  LIG1       -0.0340
      6 C          -1.8518    0.4179    0.0000 C.ar    1  LIG1       -0.0597
      7 C          -1.8518   -0.4071    0.0000 C.ar    1  LIG1       -0.0611
      8 C          -1.1373   -0.8196    0.0000 C.ar    1  LIG1       -0.0523
      9 C          -0.4228   -0.4071    0.0000 C.ar    1  LIG1        0.0072
     10 C           0.2916   -0.8196    0.0000 C.ar    1  LIG1        0.0136
     11 C           1.0061   -0.4071    0.0000 C.ar    1  LIG1        0.2676
     12 O           1.7206   -0.8196    0.0000 O.2     1  LIG1       -0.2662
     13 H           1.5129    1.9513    0.0000 H       1  LIG1        0.0474
     14 H           2.3416    0.5441   -0.9121 H       1  LIG1        0.0474
     15 H           2.3103    0.5586    0.9370 H       1  LIG1        0.0474
     16 H          -1.1373    1.9319    0.0000 H       1  LIG1        0.0639
     17 H          -2.8057    0.9687    0.0000 H       1  LIG1        0.0618
     18 H          -2.8057   -0.9579    0.0000 H       1  LIG1        0.0618
     19 H          -1.1373   -1.9211    0.0000 H       1  LIG1        0.0624
     20 H           0.2916   -1.9211    0.0000 H       1  LIG1        0.0679
@<TRIPOS>BOND
     1     1     2    1
     2     2     3   ar
     3     3     4   ar
     4     4     5   ar
     5     5     6   ar
     6     6     7   ar
     7     7     8   ar
     8     8     9   ar
     9     4     9   ar
    10     9    10   ar
    11    10    11   ar
    12     2    11   ar
    13    11    12    2
    14     1    13    1
    15     1    14    1
    16     1    15    1
    17     5    16    1
    18     6    17    1
    19     7    18    1
    20     8    19    1
    21    10    20    1
