@<TRIPOS>MOLECULE
O=c1[nH]cnc2ncsc12
 13 14 0 0 0
SMALL
GASTEIGER
Energy = 0

@<TRIPOS>ATOM
      1 O          -0.6092   -1.3994    0.0000 O.2     1  LIG1       -0.2665
      2 C          -0.6092   -0.5744    0.0000 C.ar    1  LIG1        0.2673
      3 N          -1.3237   -0.1619    0.0000 N.ar    1  LIG1       -0.3124
      4 C          -1.3237    0.6631    0.0000 C.ar    1  LIG1        0.0984
      5 N          -0.6092    1.0756    0.0000 N.ar    1  LIG1       -0.2172
      6 C           0.1052    0.6631    0.0000 C.ar    1  LIG1        0.1737
      7 C           0.1052   -0.1619    0.0000 C.ar    1  LIG1        0.1219
      8 S           0.8899   -0.4168    0.0000 S.2     1  LIG1       -0.0685
      9 C           1.3748    0.2506    0.0000 C.ar    1  LIG1        0.0678
     10 N           0.8899    0.9181    0.0000 N.ar    1  LIG1       -0.2279
     11 H          -2.2612   -0.7032    0.0000 H       1  LIG1        0.1698
     12 H          -2.2776    1.2139    0.0000 H       1  LIG1        0.1028
     13 H           2.4763    0.2506    0.0000 H       1  LIG1        0.0908
@<TRIPOS>BOND
     1     1     2    2
     2     2     3   ar
     3     3     4   ar
     4     4     5   ar
     5     5     6   ar
     6     6     7   ar
     7     2     7   ar
     8     7     8   ar
     9     8     9   ar
    10     9    10   ar
    11     6    10   ar
    12     3    11    1
    13     4    12    1
    14     9    13    1
