@<TRIPOS>MOLECULE
O=c1ncc2nc(=O)[nH]cc2[nH]1
 16 17 0 0 0
SMALL
GASTEIGER
Energy = 0

@<TRIPOS>ATOM
      1 O           2.1434   -0.8250    0.0000 O.2     1  LIG1       -0.2447
      2 C           1.4289   -0.4125    0.0000 C.ar    1  LIG1        0.3465
      3 N           1.4289    0.4125    0.0000 N.ar    1  LIG1       -0.3110
      4 C           0.7145    0.8250    0.0000 C.ar    1  LIG1        0.0320
      5 C           0.0000    0.4125    0.0000 C.ar    1  LIG1        0.0867
      6 N          -0.7145    0.8250    0.0000 N.ar    1  LIG1       -0.3033
      7 C          -1.4289    0.4125    0.0000 C.ar    1  LIG1        0.3464
      8 O          -2.1434    0.8250    0.0000 O.2     1  LIG1       -0.2447
      9 N          -1.4289   -0.4125    0.0000 N.ar    1  LIG1       -0.1994
     10 C          -0.7145   -0.8250    0.0000 C.ar    1  LIG1        0.0606
     11 C           0.0000   -0.4125    0.0000 C.ar    1  LIG1        0.1122
     12 N           0.7145   -0.8250    0.0000 N.ar    1  LIG1       -0.1901
     13 H           2.3664    0.9537    0.0000 H       1  LIG1        0.1699
     14 H           0.7145    1.9265    0.0000 H       1  LIG1        0.0830
     15 H          -0.7145    1.9075    0.0000 H       1  LIG1        0.1705
     16 H          -0.7145   -1.9265    0.0000 H       1  LIG1        0.0854
@<TRIPOS>BOND
     1     1     2    2
     2     2     3   ar
     3     3     4   ar
     4     4     5   ar
     5     5     6   ar
     6     6     7   ar
     7     7     8    2
     8     7     9   ar
     9     9    10   ar
    10    10    11   ar
    11     5    11   ar
    12    11    12   ar
    13     2    12   ar
    14     3    13    1
    15     4    14    1
    16     6    15    1
    17    10    16    1
