@<TRIPOS>MOLECULE
Cn1c(=O)ncc2ccccc12
 20 21 0 0 0
SMALL
GASTEIGER
Energy = 0

@<TRIPOS>ATOM
      1 C           0.4045   -1.4275    0.0000 C.3     1  LIG1        0.0167
      2 N           0.4045   -0.6025    0.0000 N.ar    1  LIG1       -0.2951
      3 C           1.1189   -0.1900    0.0000 C.ar    1  LIG1        0.3486
      4 O           1.8334   -0.6025    0.0000 O.2     1  LIG1       -0.2445
      5 N           1.1189    0.6350    0.0000 N.ar    1  LIG1       -0.2007
      6 C           0.4045    1.0475    0.0000 C.ar    1  LIG1        0.0421
      7 C          -0.3100    0.6350    0.0000 C.ar    1  LIG1        0.0168
      8 C          -1.0245    1.0475    0.0000 C.ar    1  LIG1       -0.0512
      9 C          -1.7389    0.6350    0.0000 C.ar    1  LIG1       -0.0610
     10 C          -1.7389   -0.1900    0.0000 C.ar    1  LIG1       -0.0598
     11 C          -1.0245   -0.6025    0.0000 C.ar    1  LIG1       -0.0374
     12 C          -0.3100   -0.1900    0.0000 C.ar    1  LIG1        0.0546
     13 H           1.4791   -1.8080    0.0000 H       1  LIG1        0.0457
     14 H          -0.1540   -1.8222   -0.9121 H       1  LIG1        0.0457
     15 H          -0.1257   -1.8022    0.9370 H       1  LIG1        0.0457
     16 H           0.4045    2.1490    0.0000 H       1  LIG1        0.0838
     17 H          -1.0245    2.1490    0.0000 H       1  LIG1        0.0625
     18 H          -2.6928    1.1857    0.0000 H       1  LIG1        0.0618
     19 H          -2.6928   -0.7407    0.0000 H       1  LIG1        0.0618
     20 H          -1.0245   -1.7040    0.0000 H       1  LIG1        0.0638
@<TRIPOS>BOND
     1     1     2    1
     2     2     3   ar
     3     3     4    2
     4     3     5   ar
     5     5     6   ar
     6     6     7   ar
     7     7     8   ar
     8     8     9   ar
     9     9    10   ar
    10    10    11   ar
    11    11    12   ar
    12     2    12   ar
    13     7    12   ar
    14     1    13    1
    15     1    14    1
    16     1    15    1
    17     6    16    1
    18     8    17    1
    19     9    18    1
    20    10    19    1
    21    11    20    1
