@<TRIPOS>MOLECULE
Cn1c(=O)cnc2[nH]cnc12
 17 18 0 0 0
SMALL
GASTEIGER
Energy = 0

@<TRIPOS>ATOM
      1 C          -0.2982   -1.4209    0.0000 C.3     1  LIG1        0.0168
      2 N          -0.2982   -0.5959    0.0000 N.ar    1  LIG1       -0.2922
      3 C          -1.0126   -0.1834    0.0000 C.ar    1  LIG1        0.2709
      4 O          -1.7271   -0.5959    0.0000 O.2     1  LIG1       -0.2660
      5 C          -1.0126    0.6416    0.0000 C.ar    1  LIG1        0.0945
      6 N          -0.2982    1.0541    0.0000 N.ar    1  LIG1       -0.2292
      7 C           0.4163    0.6416    0.0000 C.ar    1  LIG1        0.1754
      8 C           0.4163   -0.1834    0.0000 C.ar    1  LIG1        0.1804
      9 N           1.2009   -0.4383    0.0000 N.ar    1  LIG1       -0.2165
     10 C           1.6859    0.2291    0.0000 C.ar    1  LIG1        0.0973
     11 N           1.2009    0.8966    0.0000 N.ar    1  LIG1       -0.3280
     12 H          -1.3728   -1.8014    0.0000 H       1  LIG1        0.0457
     13 H           0.2603   -1.8156    0.9121 H       1  LIG1        0.0457
     14 H           0.2320   -1.7956   -0.9370 H       1  LIG1        0.0457
     15 H          -1.9665    1.1923    0.0000 H       1  LIG1        0.0886
     16 H           2.7874    0.2291    0.0000 H       1  LIG1        0.1028
     17 H           1.5354    1.9261    0.0000 H       1  LIG1        0.1683
@<TRIPOS>BOND
     1     1     2    1
     2     2     3   ar
     3     3     4    2
     4     3     5   ar
     5     5     6   ar
     6     6     7   ar
     7     7     8   ar
     8     2     8   ar
     9     8     9   ar
    10     9    10   ar
    11    10    11   ar
    12     7    11   ar
    13     1    12    1
    14     1    13    1
    15     1    14    1
    16     5    15    1
    17    10    16    1
    18    11    17    1
