@<TRIPOS>MOLECULE
Cn1cc2c(=O)[nH]ccc2n1
 18 19 0 0 0
SMALL
GASTEIGER
Energy = 0

@<TRIPOS>ATOM
      1 C           2.1116   -0.1822    0.0000 C.3     1  LIG1        0.0302
      2 N           1.2866   -0.1822    0.0000 N.ar    1  LIG1       -0.2732
      3 C           0.8016    0.4852    0.0000 C.ar    1  LIG1        0.0381
      4 C           0.0170    0.2303    0.0000 C.ar    1  LIG1        0.0839
      5 C          -0.6975    0.6428    0.0000 C.ar    1  LIG1        0.2595
      6 O          -0.6975    1.4678    0.0000 O.2     1  LIG1       -0.2671
      7 N          -1.4119    0.2303    0.0000 N.ar    1  LIG1       -0.3285
      8 C          -1.4119   -0.5947    0.0000 C.ar    1  LIG1        0.0070
      9 C          -0.6975   -1.0072    0.0000 C.ar    1  LIG1       -0.0178
     10 C           0.0170   -0.5947    0.0000 C.ar    1  LIG1        0.0993
     11 N           0.8016   -0.8496    0.0000 N.ar    1  LIG1       -0.1712
     12 H           2.4921    0.8924    0.0000 H       1  LIG1        0.0473
     13 H           2.5063   -0.7407   -0.9121 H       1  LIG1        0.0473
     14 H           2.4863   -0.7124    0.9370 H       1  LIG1        0.0473
     15 H           1.1419    1.5328    0.0000 H       1  LIG1        0.0834
     16 H          -2.3494    0.7715    0.0000 H       1  LIG1        0.1683
     17 H          -2.3658   -1.1454    0.0000 H       1  LIG1        0.0808
     18 H          -0.6975   -2.1087    0.0000 H       1  LIG1        0.0654
@<TRIPOS>BOND
     1     1     2    1
     2     2     3   ar
     3     3     4   ar
     4     4     5   ar
     5     5     6    2
     6     5     7   ar
     7     7     8   ar
     8     8     9   ar
     9     9    10   ar
    10     4    10   ar
    11    10    11   ar
    12     2    11   ar
    13     1    12    1
    14     1    13    1
    15     1    14    1
    16     3    15    1
    17     7    16    1
    18     8    17    1
    19     9    18    1
