@<TRIPOS>MOLECULE
c1cnc2cnccc2n1
 15 16 0 0 0
SMALL
GASTEIGER
Energy = 0

@<TRIPOS>ATOM
      1 C           1.4289    0.4190    0.0000 C.ar    1  LIG1        0.0297
      2 C           0.7145    0.8315    0.0000 C.ar    1  LIG1       -0.0161
      3 C           0.0000    0.4190    0.0000 C.ar    1  LIG1        0.0921
      4 N          -0.7145    0.8315    0.0000 N.ar    1  LIG1       -0.2518
      5 C          -1.4289    0.4190    0.0000 C.ar    1  LIG1        0.0464
      6 C          -1.4289   -0.4060    0.0000 C.ar    1  LIG1        0.0464
      7 N          -0.7145   -0.8185    0.0000 N.ar    1  LIG1       -0.2504
      8 C           0.0000   -0.4060    0.0000 C.ar    1  LIG1        0.1072
      9 C           0.7145   -0.8185    0.0000 C.ar    1  LIG1        0.0550
     10 N           1.4289   -0.4060    0.0000 N.ar    1  LIG1       -0.2610
     11 H           2.3828    0.9697    0.0000 H       1  LIG1        0.0830
     12 H           0.7145    1.9330    0.0000 H       1  LIG1        0.0655
     13 H          -2.3828    0.9697    0.0000 H       1  LIG1        0.0845
     14 H          -2.3828   -0.9567    0.0000 H       1  LIG1        0.0845
     15 H           0.7145   -1.9200    0.0000 H       1  LIG1        0.0852
@<TRIPOS>BOND
     1     1     2   ar
     2     2     3   ar
     3     3     4   ar
     4     4     5   ar
     5     5     6   ar
     6     6     7   ar
     7     7     8   ar
     8     3     8   ar
     9     8     9   ar
    10     9    10   ar
    11     1    10   ar
    12     1    11    1
    13     2    12    1
    14     5    13    1
    15     6    14    1
    16     9    15    1
