@<TRIPOS>MOLECULE
c1ccccc1
 12 12 0 0 0
SMALL
GASTEIGER
Energy = 0

@<TRIPOS>ATOM
      1 C          -0.0000   -0.8250    0.0000 C.ar    1  LIG1       -0.0618
      2 C           0.7145   -0.4125    0.0000 C.ar    1  LIG1       -0.0618
      3 C           0.7145    0.4125    0.0000 C.ar    1  LIG1       -0.0618
      4 C           0.0000    0.8250    0.0000 C.ar    1  LIG1       -0.0618
      5 C          -0.7145    0.4125    0.0000 C.ar    1  LIG1       -0.0618
      6 C          -0.7145   -0.4125    0.0000 C.ar    1  LIG1       -0.0618
      7 H           0.0000   -1.9265    0.0000 H       1  LIG1        0.0618
      8 H           1.6684   -0.9633    0.0000 H       1  LIG1        0.0618
      9 H           1.6684    0.9633    0.0000 H       1  LIG1        0.0618
     10 H           0.0000    1.9265    0.0000 H       1  LIG1        0.0618
     11 H          -1.6684    0.9633    0.0000 H       1  LIG1        0.0618
     12 H          -1.6684   -0.9633    0.0000 H       1  LIG1        0.0618
@<TRIPOS>BOND
     1     1     2   ar
     2     2     3   ar
     3     3     4   ar
     4     4     5   ar
     5     5     6   ar
     6     1     6   ar
     7     1     7    1
     8     2     8    1
     9     3     9    1
    10     4    10    1
    11     5    11    1
    12     6    12    1
