@<TRIPOS>MOLECULE
O=c1[nH]ccc2oncc12
 14 15 0 0 0
SMALL
GASTEIGER
Energy = 0

@<TRIPOS>ATOM
      1 O          -0.5175   -1.4640    0.0000 O.2     1  LIG1       -0.2671
      2 C          -0.5175   -0.6390    0.0000 C.ar    1  LIG1        0.2611
      3 N          -1.2320   -0.2265    0.0000 N.ar    1  LIG1       -0.3284
      4 C          -1.2320    0.5985    0.0000 C.ar    1  LIG1        0.0085
      5 C          -0.5175    1.0110    0.0000 C.ar    1  LIG1        0.0001
      6 C           0.1969    0.5985    0.0000 C.ar    1  LIG1        0.1738
      7 C           0.1969   -0.2265    0.0000 C.ar    1  LIG1        0.1052
      8 C           0.9816   -0.4815    0.0000 C.ar    1  LIG1        0.0830
      9 N           1.4665    0.1860    0.0000 N.ar    1  LIG1       -0.0853
     10 O           0.9816    0.8534    0.0000 O.2     1  LIG1       -0.3544
     11 H          -2.1695   -0.7678    0.0000 H       1  LIG1        0.1683
     12 H          -2.1859    1.1493    0.0000 H       1  LIG1        0.0809
     13 H          -0.5175    2.1125    0.0000 H       1  LIG1        0.0670
     14 H           1.3220   -1.5291    0.0000 H       1  LIG1        0.0872
@<TRIPOS>BOND
     1     1     2    2
     2     2     3   ar
     3     3     4   ar
     4     4     5   ar
     5     5     6   ar
     6     6     7   ar
     7     2     7   ar
     8     7     8   ar
     9     8     9   ar
    10     9    10   ar
    11     6    10   ar
    12     3    11    1
    13     4    12    1
    14     5    13    1
    15     8    14    1
