@<TRIPOS>MOLECULE
O=c1ncc2nncnc2[nH]1
 14 15 0 0 0
SMALL
GASTEIGER
Energy = 0

@<TRIPOS>ATOM
      1 O           1.9184    0.7346    0.0000 O.2     1  LIG1       -0.2447
      2 C           1.2040    0.3221    0.0000 C.ar    1  LIG1        0.3474
      3 N           0.4895    0.7346    0.0000 N.ar    1  LIG1       -0.2892
      4 C          -0.2250    0.3221    0.0000 C.ar    1  LIG1        0.1654
      5 N          -0.9395    0.7346    0.0000 N.ar    1  LIG1       -0.2143
      6 C          -1.6539    0.3221    0.0000 C.ar    1  LIG1        0.1406
      7 N          -1.6539   -0.5029    0.0000 N.ar    1  LIG1       -0.1370
      8 N          -0.9395   -0.9154    0.0000 N.ar    1  LIG1       -0.1432
      9 C          -0.2250   -0.5029    0.0000 C.ar    1  LIG1        0.1465
     10 C           0.4895   -0.9154    0.0000 C.ar    1  LIG1        0.0637
     11 N           1.2040   -0.5029    0.0000 N.ar    1  LIG1       -0.1992
     12 H           0.4895    1.8171    0.0000 H       1  LIG1        0.1720
     13 H          -2.6078    0.8728    0.0000 H       1  LIG1        0.1066
     14 H           0.4895   -2.0169    0.0000 H       1  LIG1        0.0855
@<TRIPOS>BOND
     1     1     2    2
     2     2     3   ar
     3     3     4   ar
     4     4     5   ar
     5     5     6   ar
     6     6     7   ar
     7     7     8   ar
     8     8     9   ar
     9     4     9   ar
    10     9    10   ar
    11    10    11   ar
    12     2    11   ar
    13     3    12    1
    14     6    13    1
    15    10    14    1
