@<TRIPOS>MOLECULE
O=c1nc[nH]c(=O)[nH]1
 11 11 0 0 0
SMALL
GASTEIGER
Energy = 0

@<TRIPOS>ATOM
      1 O           0.2077   -1.5301    0.0000 O.2     1  LIG1       -0.2466
      2 C           0.2077   -0.7051    0.0000 C.ar    1  LIG1        0.3290
      3 N           0.9222   -0.2926    0.0000 N.ar    1  LIG1       -0.2984
      4 C           0.9222    0.5324    0.0000 C.ar    1  LIG1        0.1025
      5 N           0.2077    0.9449    0.0000 N.ar    1  LIG1       -0.1834
      6 C          -0.5067    0.5324    0.0000 C.ar    1  LIG1        0.3510
      7 O          -1.2212    0.9449    0.0000 O.2     1  LIG1       -0.2445
      8 N          -0.5067   -0.2926    0.0000 N.ar    1  LIG1       -0.2587
      9 H           1.8597   -0.8339    0.0000 H       1  LIG1        0.1713
     10 H           1.8761    1.0832    0.0000 H       1  LIG1        0.1030
     11 H          -1.4442   -0.8338    0.0000 H       1  LIG1        0.1750
@<TRIPOS>BOND
     1     1     2    2
     2     2     3   ar
     3     3     4   ar
     4     4     5   ar
     5     5     6   ar
     6     6     7    2
     7     6     8   ar
     8     2     8   ar
     9     3     9    1
    10     4    10    1
    11     8    11    1
