@<TRIPOS>MOLECULE
Cn1sc2nccn2c1=O
 15 16 0 0 0
SMALL
GASTEIGER
Energy = 0

@<TRIPOS>ATOM
      1 C           1.7050    0.0622    0.0000 C.3     1  LIG1        0.0236
      2 N           0.8800    0.0622    0.0000 N.ar    1  LIG1       -0.2639
      3 S           0.3950    0.7296    0.0000 S.2     1  LIG1        0.0315
      4 C          -0.3896    0.4747    0.0000 C.ar    1  LIG1        0.1978
      5 N          -1.1742    0.7296    0.0000 N.ar    1  LIG1       -0.2285
      6 C          -1.6591    0.0622    0.0000 C.ar    1  LIG1        0.0471
      7 C          -1.1742   -0.6052    0.0000 C.ar    1  LIG1        0.0347
      8 N          -0.3896   -0.3503    0.0000 N.ar    1  LIG1       -0.2446
      9 C           0.3950   -0.6052    0.0000 C.ar    1  LIG1        0.3412
     10 O           0.6500   -1.3899    0.0000 O.2     1  LIG1       -0.2454
     11 H           2.0855    1.1368    0.0000 H       1  LIG1        0.0463
     12 H           2.0997   -0.4963   -0.9121 H       1  LIG1        0.0463
     13 H           2.0797   -0.4680    0.9370 H       1  LIG1        0.0463
     14 H          -2.7606    0.0622    0.0000 H       1  LIG1        0.0845
     15 H          -1.5146   -1.6528    0.0000 H       1  LIG1        0.0830
@<TRIPOS>BOND
     1     1     2    1
     2     2     3   ar
     3     3     4   ar
     4     4     5   ar
     5     5     6   ar
     6     6     7   ar
     7     7     8   ar
     8     4     8   ar
     9     8     9   ar
    10     2     9   ar
    11     9    10    2
    12     1    11    1
    13     1    12    1
    14     1    13    1
    15     6    14    1
    16     7    15    1
