@<TRIPOS>MOLECULE
c1nnc[nH]1
 8 8 0 0 0
SMALL
GASTEIGER
Energy = 0

@<TRIPOS>ATOM
      1 N          -0.2209   -0.6799    0.0000 N.ar    1  LIG1       -0.3342
      2 C           0.5637   -0.4250    0.0000 C.ar    1  LIG1        0.1170
      3 N           0.5637    0.4000    0.0000 N.ar    1  LIG1       -0.1384
      4 N          -0.2209    0.6550    0.0000 N.ar    1  LIG1       -0.1384
      5 C          -0.7058   -0.0125    0.0000 C.ar    1  LIG1        0.1170
      6 H          -0.5554   -1.7094    0.0000 H       1  LIG1        0.1677
      7 H           1.4548   -1.0725    0.0000 H       1  LIG1        0.1046
      8 H          -1.8073   -0.0125    0.0000 H       1  LIG1        0.1046
@<TRIPOS>BOND
     1     1     2   ar
     2     2     3   ar
     3     3     4   ar
     4     4     5   ar
     5     1     5   ar
     6     1     6    1
     7     2     7    1
     8     5     8    1
