@<TRIPOS>MOLECULE
O=c1cn[nH]c2cnccc12
 16 17 0 0 0
SMALL
GASTEIGER
Energy = 0

@<TRIPOS>ATOM
      1 O           0.6240   -1.4874    0.0000 O.2     1  LIG1       -0.2855
      2 C           0.6240   -0.6624    0.0000 C.ar    1  LIG1        0.2077
      3 C           1.3385   -0.2499    0.0000 C.ar    1  LIG1        0.0950
      4 N           1.3385    0.5751    0.0000 N.ar    1  LIG1       -0.1779
      5 N           0.6240    0.9876    0.0000 N.ar    1  LIG1       -0.2753
      6 C          -0.0905    0.5751    0.0000 C.ar    1  LIG1        0.0860
      7 C          -0.8050    0.9876    0.0000 C.ar    1  LIG1        0.0530
      8 N          -1.5194    0.5751    0.0000 N.ar    1  LIG1       -0.2611
      9 C          -1.5194   -0.2499    0.0000 C.ar    1  LIG1        0.0284
     10 C          -0.8050   -0.6624    0.0000 C.ar    1  LIG1       -0.0307
     11 C          -0.0905   -0.2499    0.0000 C.ar    1  LIG1        0.0509
     12 H           2.2924   -0.8007    0.0000 H       1  LIG1        0.0887
     13 H           0.6240    2.0701    0.0000 H       1  LIG1        0.1890
     14 H          -0.8050    2.0891    0.0000 H       1  LIG1        0.0851
     15 H          -2.4733   -0.8006    0.0000 H       1  LIG1        0.0830
     16 H          -0.8050   -1.7639    0.0000 H       1  LIG1        0.0640
@<TRIPOS>BOND
     1     1     2    2
     2     2     3   ar
     3     3     4   ar
     4     4     5   ar
     5     5     6   ar
     6     6     7   ar
     7     7     8   ar
     8     8     9   ar
     9     9    10   ar
    10    10    11   ar
    11     2    11   ar
    12     6    11   ar
    13     3    12    1
    14     5    13    1
    15     7    14    1
    16     9    15    1
    17    10    16    1
