@<TRIPOS>MOLECULE
O=c1[nH][nH]c2nnccc12
 14 15 0 0 0
SMALL
GASTEIGER
Energy = 0

@<TRIPOS>ATOM
      1 O           1.0467   -1.3050    0.0000 O.2     1  LIG1       -0.2657
      2 C           0.7917   -0.5203    0.0000 C.ar    1  LIG1        0.2739
      3 N           1.2766    0.1471    0.0000 N.ar    1  LIG1       -0.2639
      4 N           0.7917    0.8145    0.0000 N.ar    1  LIG1       -0.2788
      5 C           0.0071    0.5596    0.0000 C.ar    1  LIG1        0.1800
      6 N          -0.7074    0.9721    0.0000 N.ar    1  LIG1       -0.1295
      7 N          -1.4218    0.5596    0.0000 N.ar    1  LIG1       -0.1556
      8 C          -1.4218   -0.2654    0.0000 C.ar    1  LIG1        0.0508
      9 C          -0.7074   -0.6779    0.0000 C.ar    1  LIG1       -0.0259
     10 C           0.0071   -0.2654    0.0000 C.ar    1  LIG1        0.0873
     11 H           2.3591    0.1471    0.0000 H       1  LIG1        0.1900
     12 H           1.1262    1.8440    0.0000 H       1  LIG1        0.1885
     13 H          -2.3757   -0.8161    0.0000 H       1  LIG1        0.0848
     14 H          -0.7074   -1.7794    0.0000 H       1  LIG1        0.0642
@<TRIPOS>BOND
     1     1     2    2
     2     2     3   ar
     3     3     4   ar
     4     4     5   ar
     5     5     6   ar
     6     6     7   ar
     7     7     8   ar
     8     8     9   ar
     9     9    10   ar
    10     2    10   ar
    11     5    10   ar
    12     3    11    1
    13     4    12    1
    14     8    13    1
    15     9    14    1
