@<TRIPOS>MOLECULE
Cn1cnc(=O)n2ncnc12
 16 17 0 0 0
SMALL
GASTEIGER
Energy = 0

@<TRIPOS>ATOM
      1 C           0.4506   -1.6951    0.0000 C.3     1  LIG1        0.0160
      2 N           0.4506   -0.8701    0.0000 N.ar    1  LIG1       -0.3037
      3 C           1.1651   -0.4576    0.0000 C.ar    1  LIG1        0.1038
      4 N           1.1651    0.3674    0.0000 N.ar    1  LIG1       -0.1817
      5 C           0.4506    0.7799    0.0000 C.ar    1  LIG1        0.3731
      6 O           0.4506    1.6049    0.0000 O.2     1  LIG1       -0.2424
      7 N          -0.2639    0.3674    0.0000 N.ar    1  LIG1       -0.1445
      8 N          -1.0485    0.6224    0.0000 N.ar    1  LIG1       -0.1479
      9 C          -1.5334   -0.0451    0.0000 C.ar    1  LIG1        0.1407
     10 N          -1.0485   -0.7125    0.0000 N.ar    1  LIG1       -0.1987
     11 C          -0.2639   -0.4576    0.0000 C.ar    1  LIG1        0.2385
     12 H           1.5252   -2.0756    0.0000 H       1  LIG1        0.0457
     13 H          -0.1079   -2.0898   -0.9121 H       1  LIG1        0.0457
     14 H          -0.0796   -2.0698    0.9370 H       1  LIG1        0.0457
     15 H           2.1190   -1.0084    0.0000 H       1  LIG1        0.1031
     16 H          -2.6349   -0.0451    0.0000 H       1  LIG1        0.1066
@<TRIPOS>BOND
     1     1     2    1
     2     2     3   ar
     3     3     4   ar
     4     4     5   ar
     5     5     6    2
     6     5     7   ar
     7     7     8   ar
     8     8     9   ar
     9     9    10   ar
    10    10    11   ar
    11     2    11   ar
    12     7    11   ar
    13     1    12    1
    14     1    13    1
    15     1    14    1
    16     3    15    1
    17     9    16    1
