@<TRIPOS>MOLECULE
c1onc2cncnc12
 12 13 0 0 0
SMALL
GASTEIGER
Energy = 0

@<TRIPOS>ATOM
      1 O           1.3969    0.0043    0.0000 O.2     1  LIG1       -0.3601
      2 C           0.9120    0.6717    0.0000 C.ar    1  LIG1        0.1502
      3 C           0.1274    0.4168    0.0000 C.ar    1  LIG1        0.1328
      4 N          -0.5871    0.8293    0.0000 N.ar    1  LIG1       -0.2306
      5 C          -1.3016    0.4168    0.0000 C.ar    1  LIG1        0.1168
      6 N          -1.3016   -0.4082    0.0000 N.ar    1  LIG1       -0.2414
      7 C          -0.5871   -0.8207    0.0000 C.ar    1  LIG1        0.0600
      8 C           0.1274   -0.4082    0.0000 C.ar    1  LIG1        0.1495
      9 N           0.9120   -0.6631    0.0000 N.ar    1  LIG1       -0.0752
     10 H           1.2524    1.7193    0.0000 H       1  LIG1        0.1080
     11 H          -2.2555    0.9676    0.0000 H       1  LIG1        0.1047
     12 H          -0.5871   -1.9222    0.0000 H       1  LIG1        0.0853
@<TRIPOS>BOND
     1     1     2   ar
     2     2     3   ar
     3     3     4   ar
     4     4     5   ar
     5     5     6   ar
     6     6     7   ar
     7     7     8   ar
     8     3     8   ar
     9     8     9   ar
    10     1     9   ar
    11     2    10    1
    12     5    11    1
    13     7    12    1
