@<TRIPOS>MOLECULE
Cn1cc2nncc2[nH]c1=O
 17 18 0 0 0
SMALL
GASTEIGER
Energy = 0

@<TRIPOS>ATOM
      1 C           1.6048    0.8443    0.0000 C.3     1  LIG1        0.0162
      2 N           0.8903    0.4318    0.0000 N.ar    1  LIG1       -0.3016
      3 C           0.1759    0.8443    0.0000 C.ar    1  LIG1        0.0382
      4 C          -0.5386    0.4318    0.0000 C.ar    1  LIG1        0.1271
      5 N          -1.3232    0.6867    0.0000 N.ar    1  LIG1       -0.1462
      6 N          -1.8081    0.0193    0.0000 N.ar    1  LIG1       -0.1549
      7 C          -1.3232   -0.6481    0.0000 C.ar    1  LIG1        0.0755
      8 C          -0.5386   -0.3932    0.0000 C.ar    1  LIG1        0.0920
      9 N           0.1759   -0.8057    0.0000 N.ar    1  LIG1       -0.3046
     10 C           0.8903   -0.3932    0.0000 C.ar    1  LIG1        0.3269
     11 O           1.6048   -0.8057    0.0000 O.2     1  LIG1       -0.2466
     12 H           1.3971    1.9652    0.0000 H       1  LIG1        0.0457
     13 H           2.2258    0.5580   -0.9121 H       1  LIG1        0.0457
     14 H           2.1945    0.5725    0.9370 H       1  LIG1        0.0457
     15 H           0.1759    1.9458    0.0000 H       1  LIG1        0.0833
     16 H          -1.6636   -1.6957    0.0000 H       1  LIG1        0.0870
     17 H           0.1759   -1.8882    0.0000 H       1  LIG1        0.1705
@<TRIPOS>BOND
     1     1     2    1
     2     2     3   ar
     3     3     4   ar
     4     4     5   ar
     5     5     6   ar
     6     6     7   ar
     7     7     8   ar
     8     4     8   ar
     9     8     9   ar
    10     9    10   ar
    11     2    10   ar
    12    10    11    2
    13     1    12    1
    14     1    13    1
    15     1    14    1
    16     3    15    1
    17     7    16    1
    18     9    17    1
