@<TRIPOS>MOLECULE
Cn1cnc2cccn2c1=O
 18 19 0 0 0
SMALL
GASTEIGER
Energy = 0

@<TRIPOS>ATOM
      1 C           1.7293   -0.5695    0.0000 C.3     1  LIG1        0.0175
      2 N           1.0148   -0.1570    0.0000 N.ar    1  LIG1       -0.2871
      3 C           1.0148    0.6680    0.0000 C.ar    1  LIG1        0.1018
      4 N           0.3003    1.0805    0.0000 N.ar    1  LIG1       -0.2196
      5 C          -0.4141    0.6680    0.0000 C.ar    1  LIG1        0.1430
      6 C          -1.1987    0.9230    0.0000 C.ar    1  LIG1       -0.0173
      7 C          -1.6837    0.2555    0.0000 C.ar    1  LIG1       -0.0416
      8 C          -1.1987   -0.4119    0.0000 C.ar    1  LIG1        0.0161
      9 N          -0.4141   -0.1570    0.0000 N.ar    1  LIG1       -0.2532
     10 C           0.3003   -0.5695    0.0000 C.ar    1  LIG1        0.3357
     11 O           0.3003   -1.3945    0.0000 O.2     1  LIG1       -0.2459
     12 H           2.5961    0.1709    0.0000 H       1  LIG1        0.0457
     13 H           1.7919   -1.2505   -0.9121 H       1  LIG1        0.0457
     14 H           1.7887   -1.2161    0.9370 H       1  LIG1        0.0457
     15 H           1.9687    1.2188    0.0000 H       1  LIG1        0.1031
     16 H          -1.5390    1.9706    0.0000 H       1  LIG1        0.0655
     17 H          -2.7852    0.2555    0.0000 H       1  LIG1        0.0633
     18 H          -1.5390   -1.4595    0.0000 H       1  LIG1        0.0815
@<TRIPOS>BOND
     1     1     2    1
     2     2     3   ar
     3     3     4   ar
     4     4     5   ar
     5     5     6   ar
     6     6     7   ar
     7     7     8   ar
     8     8     9   ar
     9     5     9   ar
    10     9    10   ar
    11     2    10   ar
    12    10    11    2
    13     1    12    1
    14     1    13    1
    15     1    14    1
    16     3    15    1
    17     6    16    1
    18     7    17    1
    19     8    18    1
