@<TRIPOS>MOLECULE
Cn1ncn2cccc2c1=O
 18 19 0 0 0
SMALL
GASTEIGER
Energy = 0

@<TRIPOS>ATOM
      1 C           1.7192   -0.5753    0.0000 C.3     1  LIG1        0.0341
      2 N           1.0048   -0.1628    0.0000 N.ar    1  LIG1       -0.2295
      3 N           1.0048    0.6622    0.0000 N.ar    1  LIG1       -0.1584
      4 C           0.2903    1.0747    0.0000 C.ar    1  LIG1        0.1212
      5 N          -0.4242    0.6622    0.0000 N.ar    1  LIG1       -0.3012
      6 C          -1.2088    0.9172    0.0000 C.ar    1  LIG1        0.0114
      7 C          -1.6937    0.2497    0.0000 C.ar    1  LIG1       -0.0430
      8 C          -1.2088   -0.4177    0.0000 C.ar    1  LIG1       -0.0311
      9 C          -0.4242   -0.1628    0.0000 C.ar    1  LIG1        0.1138
     10 C           0.2903   -0.5753    0.0000 C.ar    1  LIG1        0.2910
     11 O           0.2903   -1.4003    0.0000 O.2     1  LIG1       -0.2640
     12 H           2.5861    0.1650    0.0000 H       1  LIG1        0.0474
     13 H           1.7817   -1.2563   -0.9121 H       1  LIG1        0.0474
     14 H           1.7786   -1.2219    0.9370 H       1  LIG1        0.0474
     15 H           0.2903    2.1762    0.0000 H       1  LIG1        0.1050
     16 H          -1.5492    1.9648    0.0000 H       1  LIG1        0.0813
     17 H          -2.7952    0.2497    0.0000 H       1  LIG1        0.0633
     18 H          -1.5492   -1.4653    0.0000 H       1  LIG1        0.0640
@<TRIPOS>BOND
     1     1     2    1
     2     2     3   ar
     3     3     4   ar
     4     4     5   ar
     5     5     6   ar
     6     6     7   ar
     7     7     8   ar
     8     8     9   ar
     9     5     9   ar
    10     9    10   ar
    11     2    10   ar
    12    10    11    2
    13     1    12    1
    14     1    13    1
    15     1    14    1
    16     4    15    1
    17     6    16    1
    18     7    17    1
    19     8    18    1
