@<TRIPOS>MOLECULE
c1cc2nccnc2[nH]1
 14 15 0 0 0
SMALL
GASTEIGER
Energy = 0

@<TRIPOS>ATOM
      1 N           0.9483   -0.6558    0.0000 N.ar    1  LIG1       -0.3446
      2 C           1.4333    0.0117    0.0000 C.ar    1  LIG1        0.0056
      3 C           0.9483    0.6791    0.0000 C.ar    1  LIG1       -0.0167
      4 C           0.1637    0.4242    0.0000 C.ar    1  LIG1        0.1073
      5 N          -0.5507    0.8367    0.0000 N.ar    1  LIG1       -0.2504
      6 C          -1.2652    0.4242    0.0000 C.ar    1  LIG1        0.0465
      7 C          -1.2652   -0.4008    0.0000 C.ar    1  LIG1        0.0480
      8 N          -0.5507   -0.8133    0.0000 N.ar    1  LIG1       -0.2345
      9 C           0.1637   -0.4008    0.0000 C.ar    1  LIG1        0.1565
     10 H           1.2828   -1.6853    0.0000 H       1  LIG1        0.1668
     11 H           2.5348    0.0117    0.0000 H       1  LIG1        0.0808
     12 H           1.2886    1.7267    0.0000 H       1  LIG1        0.0654
     13 H          -2.2191    0.9750    0.0000 H       1  LIG1        0.0845
     14 H          -2.2191   -0.9516    0.0000 H       1  LIG1        0.0846
@<TRIPOS>BOND
     1     1     2   ar
     2     2     3   ar
     3     3     4   ar
     4     4     5   ar
     5     5     6   ar
     6     6     7   ar
     7     7     8   ar
     8     8     9   ar
     9     1     9   ar
    10     4     9   ar
    11     1    10    1
    12     2    11    1
    13     3    12    1
    14     6    13    1
    15     7    14    1
