@<TRIPOS>MOLECULE
Cn1cc2cccnc2n1
 17 18 0 0 0
SMALL
GASTEIGER
Energy = 0

@<TRIPOS>ATOM
      1 C           2.0118    0.0236    0.0000 C.3     1  LIG1        0.0303
      2 N           1.1868    0.0236    0.0000 N.ar    1  LIG1       -0.2719
      3 C           0.7018    0.6911    0.0000 C.ar    1  LIG1        0.0345
      4 C          -0.0828    0.4361    0.0000 C.ar    1  LIG1        0.0385
      5 C          -0.7973    0.8486    0.0000 C.ar    1  LIG1       -0.0481
      6 C          -1.5117    0.4361    0.0000 C.ar    1  LIG1       -0.0428
      7 C          -1.5117   -0.3889    0.0000 C.ar    1  LIG1        0.0300
      8 N          -0.7973   -0.8014    0.0000 N.ar    1  LIG1       -0.2343
      9 C          -0.0828   -0.3889    0.0000 C.ar    1  LIG1        0.1813
     10 N           0.7018   -0.6438    0.0000 N.ar    1  LIG1       -0.1513
     11 H           2.3923    1.0982    0.0000 H       1  LIG1        0.0473
     12 H           2.4065   -0.5349   -0.9121 H       1  LIG1        0.0473
     13 H           2.3865   -0.5066    0.9370 H       1  LIG1        0.0473
     14 H           1.0421    1.7387    0.0000 H       1  LIG1        0.0833
     15 H          -0.7973    1.9501    0.0000 H       1  LIG1        0.0626
     16 H          -2.4656    0.9868    0.0000 H       1  LIG1        0.0633
     17 H          -2.4656   -0.9396    0.0000 H       1  LIG1        0.0830
@<TRIPOS>BOND
     1     1     2    1
     2     2     3   ar
     3     3     4   ar
     4     4     5   ar
     5     5     6   ar
     6     6     7   ar
     7     7     8   ar
     8     8     9   ar
     9     4     9   ar
    10     9    10   ar
    11     2    10   ar
    12     1    11    1
    13     1    12    1
    14     1    13    1
    15     3    14    1
    16     5    15    1
    17     6    16    1
    18     7    17    1
