@<TRIPOS>MOLECULE
c1cc2cnc[nH]c2n1
 14 15 0 0 0
SMALL
GASTEIGER
Energy = 0

@<TRIPOS>ATOM
      1 N           0.5382   -0.8061    0.0000 N.ar    1  LIG1       -0.3305
      2 C           1.2527   -0.3936    0.0000 C.ar    1  LIG1        0.0947
      3 N           1.2527    0.4314    0.0000 N.ar    1  LIG1       -0.2449
      4 C           0.5382    0.8439    0.0000 C.ar    1  LIG1        0.0399
      5 C          -0.1762    0.4314    0.0000 C.ar    1  LIG1        0.0368
      6 C          -0.9608    0.6863    0.0000 C.ar    1  LIG1       -0.0315
      7 C          -1.4458    0.0189    0.0000 C.ar    1  LIG1        0.0306
      8 N          -0.9608   -0.6485    0.0000 N.ar    1  LIG1       -0.2374
      9 C          -0.1762   -0.3936    0.0000 C.ar    1  LIG1        0.1406
     10 H           0.5382   -1.8886    0.0000 H       1  LIG1        0.1682
     11 H           2.2066   -0.9444    0.0000 H       1  LIG1        0.1027
     12 H           0.5382    1.9454    0.0000 H       1  LIG1        0.0837
     13 H          -1.3011    1.7339    0.0000 H       1  LIG1        0.0640
     14 H          -2.5473    0.0189    0.0000 H       1  LIG1        0.0830
@<TRIPOS>BOND
     1     1     2   ar
     2     2     3   ar
     3     3     4   ar
     4     4     5   ar
     5     5     6   ar
     6     6     7   ar
     7     7     8   ar
     8     8     9   ar
     9     1     9   ar
    10     5     9   ar
    11     1    10    1
    12     2    11    1
    13     4    12    1
    14     6    13    1
    15     7    14    1
