@<TRIPOS>MOLECULE
c1ncc2snnc2n1
 11 12 0 0 0
SMALL
GASTEIGER
Energy = 0

@<TRIPOS>ATOM
      1 S           0.7981   -0.5849    0.0000 S.2     1  LIG1        0.0398
      2 N           1.2830    0.0825    0.0000 N.ar    1  LIG1       -0.1078
      3 N           0.7981    0.7499    0.0000 N.ar    1  LIG1       -0.1209
      4 C           0.0135    0.4950    0.0000 C.ar    1  LIG1        0.1934
      5 N          -0.7010    0.9075    0.0000 N.ar    1  LIG1       -0.2139
      6 C          -1.4155    0.4950    0.0000 C.ar    1  LIG1        0.1184
      7 N          -1.4155   -0.3300    0.0000 N.ar    1  LIG1       -0.2424
      8 C          -0.7010   -0.7425    0.0000 C.ar    1  LIG1        0.0481
      9 C           0.0135   -0.3300    0.0000 C.ar    1  LIG1        0.0963
     10 H          -2.3694    1.0458    0.0000 H       1  LIG1        0.1047
     11 H          -0.7010   -1.8440    0.0000 H       1  LIG1        0.0843
@<TRIPOS>BOND
     1     1     2   ar
     2     2     3   ar
     3     3     4   ar
     4     4     5   ar
     5     5     6   ar
     6     6     7   ar
     7     7     8   ar
     8     8     9   ar
     9     1     9   ar
    10     4     9   ar
    11     6    10    1
    12     8    11    1
