@<TRIPOS>MOLECULE
O=c1[nH][nH]c2c(=O)[nH]ccc12
 16 17 0 0 0
SMALL
GASTEIGER
Energy = 0

@<TRIPOS>ATOM
      1 O           1.1145   -1.4885    0.0000 O.2     1  LIG1       -0.2658
      2 C           0.8595   -0.7039    0.0000 C.ar    1  LIG1        0.2724
      3 N           1.3445   -0.0364    0.0000 N.ar    1  LIG1       -0.2650
      4 N           0.8595    0.6310    0.0000 N.ar    1  LIG1       -0.2917
      5 C           0.0749    0.3761    0.0000 C.ar    1  LIG1        0.1320
      6 C           0.0749   -0.4489    0.0000 C.ar    1  LIG1        0.0719
      7 C          -0.6396   -0.8614    0.0000 C.ar    1  LIG1       -0.0311
      8 C          -1.3540   -0.4489    0.0000 C.ar    1  LIG1        0.0058
      9 N          -1.3540    0.3761    0.0000 N.ar    1  LIG1       -0.3273
     10 C          -0.6396    0.7886    0.0000 C.ar    1  LIG1        0.2743
     11 O          -0.6396    1.6136    0.0000 O.2     1  LIG1       -0.2656
     12 H           2.4270   -0.0364    0.0000 H       1  LIG1        0.1899
     13 H           1.1940    1.6605    0.0000 H       1  LIG1        0.1870
     14 H          -0.6396   -1.9629    0.0000 H       1  LIG1        0.0640
     15 H          -2.3079   -0.9996    0.0000 H       1  LIG1        0.0808
     16 H          -2.2915    0.9173    0.0000 H       1  LIG1        0.1684
@<TRIPOS>BOND
     1     1     2    2
     2     2     3   ar
     3     3     4   ar
     4     4     5   ar
     5     5     6   ar
     6     2     6   ar
     7     6     7   ar
     8     7     8   ar
     9     8     9   ar
    10     9    10   ar
    11     5    10   ar
    12    10    11    2
    13     3    12    1
    14     4    13    1
    15     7    14    1
    16     8    15    1
    17     9    16    1
