@<TRIPOS>MOLECULE
c1cc2scnc2o1
 11 12 0 0 0
SMALL
GASTEIGER
Energy = 0

@<TRIPOS>ATOM
      1 O           0.9007   -0.7443    0.0000 O.2     1  LIG1       -0.4446
      2 C           1.3856   -0.0769    0.0000 C.ar    1  LIG1        0.0956
      3 C           0.9007    0.5905    0.0000 C.ar    1  LIG1       -0.0078
      4 C           0.1160    0.3356    0.0000 C.ar    1  LIG1        0.0783
      5 C           0.1160   -0.4894    0.0000 C.ar    1  LIG1        0.2343
      6 N          -0.6686   -0.7443    0.0000 N.ar    1  LIG1       -0.2129
      7 C          -1.1535   -0.0769    0.0000 C.ar    1  LIG1        0.0692
      8 S          -0.6686    0.5905    0.0000 S.2     1  LIG1       -0.0720
      9 H           2.4871   -0.0769    0.0000 H       1  LIG1        0.1030
     10 H           1.2411    1.6381    0.0000 H       1  LIG1        0.0661
     11 H          -2.2550   -0.0769    0.0000 H       1  LIG1        0.0909
@<TRIPOS>BOND
     1     1     2   ar
     2     2     3   ar
     3     3     4   ar
     4     4     5   ar
     5     1     5   ar
     6     5     6   ar
     7     6     7   ar
     8     7     8   ar
     9     4     8   ar
    10     2     9    1
    11     3    10    1
    12     7    11    1
