@<TRIPOS>MOLECULE
O=c1[nH]nnc2cnccc12
 15 16 0 0 0
SMALL
GASTEIGER
Energy = 0

@<TRIPOS>ATOM
      1 O           0.6054   -1.4839    0.0000 O.2     1  LIG1       -0.2657
      2 C           0.6054   -0.6589    0.0000 C.ar    1  LIG1        0.2753
      3 N           1.3199   -0.2464    0.0000 N.ar    1  LIG1       -0.2240
      4 N           1.3199    0.5786    0.0000 N.ar    1  LIG1       -0.0648
      5 N           0.6054    0.9911    0.0000 N.ar    1  LIG1       -0.1294
      6 C          -0.1090    0.5786    0.0000 C.ar    1  LIG1        0.1181
      7 C          -0.8235    0.9911    0.0000 C.ar    1  LIG1        0.0555
      8 N          -1.5380    0.5786    0.0000 N.ar    1  LIG1       -0.2611
      9 C          -1.5380   -0.2464    0.0000 C.ar    1  LIG1        0.0284
     10 C          -0.8235   -0.6589    0.0000 C.ar    1  LIG1       -0.0291
     11 C          -0.1090   -0.2464    0.0000 C.ar    1  LIG1        0.0708
     12 H           2.2574   -0.7877    0.0000 H       1  LIG1        0.1938
     13 H          -0.8235    2.0926    0.0000 H       1  LIG1        0.0852
     14 H          -2.4919   -0.7972    0.0000 H       1  LIG1        0.0830
     15 H          -0.8235   -1.7604    0.0000 H       1  LIG1        0.0641
@<TRIPOS>BOND
     1     1     2    2
     2     2     3   ar
     3     3     4   ar
     4     4     5   ar
     5     5     6   ar
     6     6     7   ar
     7     7     8   ar
     8     8     9   ar
     9     9    10   ar
    10    10    11   ar
    11     2    11   ar
    12     6    11   ar
    13     3    12    1
    14     7    13    1
    15     9    14    1
    16    10    15    1
