@<TRIPOS>MOLECULE
Cn1c(=O)[nH]c2cncnc12
 17 18 0 0 0
SMALL
GASTEIGER
Energy = 0

@<TRIPOS>ATOM
      1 C           0.8490   -1.3253    0.0000 C.3     1  LIG1        0.0181
      2 N           0.5941   -0.5407    0.0000 N.ar    1  LIG1       -0.2799
      3 C           1.0790    0.1268    0.0000 C.ar    1  LIG1        0.3285
      4 O           1.9040    0.1268    0.0000 O.2     1  LIG1       -0.2465
      5 N           0.5941    0.7942    0.0000 N.ar    1  LIG1       -0.3034
      6 C          -0.1906    0.5393    0.0000 C.ar    1  LIG1        0.1045
      7 C          -0.9050    0.9518    0.0000 C.ar    1  LIG1        0.0563
      8 N          -1.6195    0.5393    0.0000 N.ar    1  LIG1       -0.2415
      9 C          -1.6195   -0.2857    0.0000 C.ar    1  LIG1        0.1184
     10 N          -0.9050   -0.6982    0.0000 N.ar    1  LIG1       -0.2161
     11 C          -0.1906   -0.2857    0.0000 C.ar    1  LIG1        0.1639
     12 H           1.9886   -1.3552    0.0000 H       1  LIG1        0.0458
     13 H           0.4398   -1.8732   -0.9121 H       1  LIG1        0.0458
     14 H           0.4605   -1.8455    0.9370 H       1  LIG1        0.0458
     15 H           0.9286    1.8237    0.0000 H       1  LIG1        0.1705
     16 H          -0.9050    2.0533    0.0000 H       1  LIG1        0.0852
     17 H          -2.5734   -0.8365    0.0000 H       1  LIG1        0.1047
@<TRIPOS>BOND
     1     1     2    1
     2     2     3   ar
     3     3     4    2
     4     3     5   ar
     5     5     6   ar
     6     6     7   ar
     7     7     8   ar
     8     8     9   ar
     9     9    10   ar
    10    10    11   ar
    11     2    11   ar
    12     6    11   ar
    13     1    12    1
    14     1    13    1
    15     1    14    1
    16     5    15    1
    17     7    16    1
    18     9    17    1
