@<TRIPOS>MOLECULE
Cn1ccc(=O)c2ncccc12
 20 21 0 0 0
SMALL
GASTEIGER
Energy = 0

@<TRIPOS>ATOM
      1 C           0.5829   -1.6933    0.0000 C.3     1  LIG1        0.0119
      2 N           0.5829   -0.8683    0.0000 N.ar    1  LIG1       -0.3483
      3 C           1.2974   -0.4558    0.0000 C.ar    1  LIG1        0.0085
      4 C           1.2974    0.3692    0.0000 C.ar    1  LIG1        0.0034
      5 C           0.5829    0.7817    0.0000 C.ar    1  LIG1        0.2075
      6 O           0.5829    1.6067    0.0000 O.2     1  LIG1       -0.2855
      7 C          -0.1316    0.3692    0.0000 C.ar    1  LIG1        0.1337
      8 N          -0.8460    0.7817    0.0000 N.ar    1  LIG1       -0.2496
      9 C          -1.5605    0.3692    0.0000 C.ar    1  LIG1        0.0285
     10 C          -1.5605   -0.4558    0.0000 C.ar    1  LIG1       -0.0416
     11 C          -0.8460   -0.8683    0.0000 C.ar    1  LIG1       -0.0346
     12 C          -0.1316   -0.4558    0.0000 C.ar    1  LIG1        0.0711
     13 H           1.6575   -2.0738    0.0000 H       1  LIG1        0.0456
     14 H           0.0244   -2.0880   -0.9121 H       1  LIG1        0.0456
     15 H           0.0527   -2.0680    0.9370 H       1  LIG1        0.0456
     16 H           2.2513   -1.0066    0.0000 H       1  LIG1        0.0810
     17 H           2.2513    0.9200    0.0000 H       1  LIG1        0.0671
     18 H          -2.5144    0.9200    0.0000 H       1  LIG1        0.0830
     19 H          -2.5144   -1.0066    0.0000 H       1  LIG1        0.0633
     20 H          -0.8460   -1.9698    0.0000 H       1  LIG1        0.0639
@<TRIPOS>BOND
     1     1     2    1
     2     2     3   ar
     3     3     4   ar
     4     4     5   ar
     5     5     6    2
     6     5     7   ar
     7     7     8   ar
     8     8     9   ar
     9     9    10   ar
    10    10    11   ar
    11    11    12   ar
    12     2    12   ar
    13     7    12   ar
    14     1    13    1
    15     1    14    1
    16     1    15    1
    17     3    16    1
    18     4    17    1
    19     9    18    1
    20    10    19    1
    21    11    20    1
