@<TRIPOS>MOLECULE
Cn1ncc2[nH]c(=O)ccc12
 18 19 0 0 0
SMALL
GASTEIGER
Energy = 0

@<TRIPOS>ATOM
      1 C           1.2966   -1.4244    0.0000 C.3     1  LIG1        0.0309
      2 N           1.0417   -0.6398    0.0000 N.ar    1  LIG1       -0.2653
      3 N           1.5266    0.0276    0.0000 N.ar    1  LIG1       -0.1772
      4 C           1.0417    0.6951    0.0000 C.ar    1  LIG1        0.0734
      5 C           0.2570    0.4401    0.0000 C.ar    1  LIG1        0.0872
      6 C           0.2570   -0.3849    0.0000 C.ar    1  LIG1        0.0850
      7 C          -0.4574   -0.7974    0.0000 C.ar    1  LIG1       -0.0295
      8 C          -1.1719   -0.3849    0.0000 C.ar    1  LIG1        0.0048
      9 C          -1.1719    0.4401    0.0000 C.ar    1  LIG1        0.2493
     10 O          -1.8864    0.8526    0.0000 O.2     1  LIG1       -0.2679
     11 N          -0.4574    0.8526    0.0000 N.ar    1  LIG1       -0.3196
     12 H           2.4362   -1.4543    0.0000 H       1  LIG1        0.0473
     13 H           0.8874   -1.9723   -0.9121 H       1  LIG1        0.0473
     14 H           0.9081   -1.9446    0.9370 H       1  LIG1        0.0473
     15 H           1.3821    1.7427    0.0000 H       1  LIG1        0.0869
     16 H          -0.4574   -1.8989    0.0000 H       1  LIG1        0.0641
     17 H          -2.1258   -0.9357    0.0000 H       1  LIG1        0.0672
     18 H          -0.4574    1.9351    0.0000 H       1  LIG1        0.1690
@<TRIPOS>BOND
     1     1     2    1
     2     2     3   ar
     3     3     4   ar
     4     4     5   ar
     5     5     6   ar
     6     2     6   ar
     7     6     7   ar
     8     7     8   ar
     9     8     9   ar
    10     9    10    2
    11     9    11   ar
    12     5    11   ar
    13     1    12    1
    14     1    13    1
    15     1    14    1
    16     4    15    1
    17     7    16    1
    18     8    17    1
    19    11    18    1
