@<TRIPOS>MOLECULE
Cn1ccn2c(=O)cnc2c1
 18 19 0 0 0
SMALL
GASTEIGER
Energy = 0

@<TRIPOS>ATOM
      1 C           1.9478   -0.9094    0.0000 C.3     1  LIG1        0.0115
      2 N           1.2334   -0.4969    0.0000 N.ar    1  LIG1       -0.3517
      3 C           1.2334    0.3281    0.0000 C.ar    1  LIG1        0.0210
      4 C           0.5189    0.7406    0.0000 C.ar    1  LIG1        0.0308
      5 N          -0.1956    0.3281    0.0000 N.ar    1  LIG1       -0.2645
      6 C          -0.9802    0.5831    0.0000 C.ar    1  LIG1        0.2751
      7 O          -1.2351    1.3677    0.0000 O.2     1  LIG1       -0.2656
      8 C          -1.4651   -0.0844    0.0000 C.ar    1  LIG1        0.0948
      9 N          -0.9802   -0.7518    0.0000 N.ar    1  LIG1       -0.2306
     10 C          -0.1956   -0.4969    0.0000 C.ar    1  LIG1        0.1567
     11 C           0.5189   -0.9094    0.0000 C.ar    1  LIG1        0.0475
     12 H           2.8147   -0.1691    0.0000 H       1  LIG1        0.0455
     13 H           2.0103   -1.5904   -0.9121 H       1  LIG1        0.0455
     14 H           2.0072   -1.5560    0.9370 H       1  LIG1        0.0455
     15 H           2.1873    0.8789    0.0000 H       1  LIG1        0.0824
     16 H           0.5189    1.8421    0.0000 H       1  LIG1        0.0829
     17 H          -2.5666   -0.0844    0.0000 H       1  LIG1        0.0886
     18 H           0.5189   -2.0109    0.0000 H       1  LIG1        0.0846
@<TRIPOS>BOND
     1     1     2    1
     2     2     3   ar
     3     3     4   ar
     4     4     5   ar
     5     5     6   ar
     6     6     7    2
     7     6     8   ar
     8     8     9   ar
     9     9    10   ar
    10     5    10   ar
    11    10    11   ar
    12     2    11   ar
    13     1    12    1
    14     1    13    1
    15     1    14    1
    16     3    15    1
    17     4    16    1
    18     8    17    1
    19    11    18    1
