@<TRIPOS>MOLECULE
O=c1[nH][nH]c2nccnc12
 14 15 0 0 0
SMALL
GASTEIGER
Energy = 0

@<TRIPOS>ATOM
      1 O           1.0359   -1.2863    0.0000 O.2     1  LIG1       -0.2640
      2 C           0.7809   -0.5016    0.0000 C.ar    1  LIG1        0.2922
      3 N           1.2658    0.1658    0.0000 N.ar    1  LIG1       -0.2626
      4 N           0.7809    0.8332    0.0000 N.ar    1  LIG1       -0.2789
      5 C          -0.0037    0.5783    0.0000 C.ar    1  LIG1        0.1766
      6 N          -0.7182    0.9908    0.0000 N.ar    1  LIG1       -0.2332
      7 C          -1.4326    0.5783    0.0000 C.ar    1  LIG1        0.0481
      8 C          -1.4326   -0.2467    0.0000 C.ar    1  LIG1        0.0467
      9 N          -0.7182   -0.6592    0.0000 N.ar    1  LIG1       -0.2450
     10 C          -0.0037   -0.2467    0.0000 C.ar    1  LIG1        0.1727
     11 H           2.3483    0.1658    0.0000 H       1  LIG1        0.1900
     12 H           1.1154    1.8627    0.0000 H       1  LIG1        0.1885
     13 H          -2.3865    1.1290    0.0000 H       1  LIG1        0.0846
     14 H          -2.3865   -0.7974    0.0000 H       1  LIG1        0.0845
@<TRIPOS>BOND
     1     1     2    2
     2     2     3   ar
     3     3     4   ar
     4     4     5   ar
     5     5     6   ar
     6     6     7   ar
     7     7     8   ar
     8     8     9   ar
     9     9    10   ar
    10     2    10   ar
    11     5    10   ar
    12     3    11    1
    13     4    12    1
    14     7    13    1
    15     8    14    1
