@<TRIPOS>MOLECULE
Cn1c(=O)[nH]c(=O)c2ccoc12
 18 19 0 0 0
SMALL
GASTEIGER
Energy = 0

@<TRIPOS>ATOM
      1 C          -0.2594   -1.5869    0.0000 C.3     1  LIG1        0.0194
      2 N          -0.2594   -0.7619    0.0000 N.ar    1  LIG1       -0.2669
      3 C          -0.9739   -0.3494    0.0000 C.ar    1  LIG1        0.3317
      4 O          -1.6884   -0.7619    0.0000 O.2     1  LIG1       -0.2464
      5 N          -0.9739    0.4756    0.0000 N.ar    1  LIG1       -0.2743
      6 C          -0.2594    0.8881    0.0000 C.ar    1  LIG1        0.2649
      7 O          -0.2594    1.7131    0.0000 O.2     1  LIG1       -0.2669
      8 C           0.4550    0.4756    0.0000 C.ar    1  LIG1        0.1024
      9 C           0.4550   -0.3494    0.0000 C.ar    1  LIG1        0.2168
     10 O           1.2397   -0.6043    0.0000 O.2     1  LIG1       -0.4463
     11 C           1.7246    0.0631    0.0000 C.ar    1  LIG1        0.0952
     12 C           1.2397    0.7306    0.0000 C.ar    1  LIG1       -0.0093
     13 H          -1.3340   -1.9674    0.0000 H       1  LIG1        0.0458
     14 H           0.2991   -1.9816    0.9121 H       1  LIG1        0.0458
     15 H           0.2708   -1.9616   -0.9370 H       1  LIG1        0.0458
     16 H          -1.9114    1.0169    0.0000 H       1  LIG1        0.1734
     17 H           2.8261    0.0631    0.0000 H       1  LIG1        0.1030
     18 H           1.5801    1.7782    0.0000 H       1  LIG1        0.0657
@<TRIPOS>BOND
     1     1     2    1
     2     2     3   ar
     3     3     4    2
     4     3     5   ar
     5     5     6   ar
     6     6     7    2
     7     6     8   ar
     8     8     9   ar
     9     2     9   ar
    10     9    10   ar
    11    10    11   ar
    12    11    12   ar
    13     8    12   ar
    14     1    13    1
    15     1    14    1
    16     1    15    1
    17     5    16    1
    18    11    17    1
    19    12    18    1
