@<TRIPOS>MOLECULE
O=c1cccn[nH]1
 11 11 0 0 0
SMALL
GASTEIGER
Energy = 0

@<TRIPOS>ATOM
      1 O          -0.0310   -1.3632    0.0000 O.2     1  LIG1       -0.2664
      2 C          -0.0310   -0.5382    0.0000 C.ar    1  LIG1        0.2647
      3 N           0.6835   -0.1257    0.0000 N.ar    1  LIG1       -0.2432
      4 N           0.6835    0.6993    0.0000 N.ar    1  LIG1       -0.1794
      5 C          -0.0310    1.1118    0.0000 C.ar    1  LIG1        0.0480
      6 C          -0.7455    0.6993    0.0000 C.ar    1  LIG1       -0.0368
      7 C          -0.7455   -0.1257    0.0000 C.ar    1  LIG1        0.0056
      8 H           1.6210   -0.6670    0.0000 H       1  LIG1        0.1921
      9 H          -0.0310    2.2133    0.0000 H       1  LIG1        0.0847
     10 H          -1.6994    1.2501    0.0000 H       1  LIG1        0.0635
     11 H          -1.6994   -0.6765    0.0000 H       1  LIG1        0.0672
@<TRIPOS>BOND
     1     1     2    2
     2     2     3   ar
     3     3     4   ar
     4     4     5   ar
     5     5     6   ar
     6     6     7   ar
     7     2     7   ar
     8     3     8    1
     9     5     9    1
    10     6    10    1
    11     7    11    1
