@<TRIPOS>MOLECULE
Cn1ncn2cccc12
 16 17 0 0 0
SMALL
GASTEIGER
Energy = 0

@<TRIPOS>ATOM
      1 C           0.8942   -1.2947    0.0000 C.3     1  LIG1        0.0324
      2 N           0.6392   -0.5101    0.0000 N.ar    1  LIG1       -0.2498
      3 N           1.1242    0.1573    0.0000 N.ar    1  LIG1       -0.1597
      4 C           0.6392    0.8248    0.0000 C.ar    1  LIG1        0.1221
      5 N          -0.1454    0.5698    0.0000 N.ar    1  LIG1       -0.2907
      6 C          -0.9300    0.8248    0.0000 C.ar    1  LIG1        0.0127
      7 C          -1.4149    0.1573    0.0000 C.ar    1  LIG1       -0.0417
      8 C          -0.9300   -0.5101    0.0000 C.ar    1  LIG1       -0.0177
      9 C          -0.1454   -0.2552    0.0000 C.ar    1  LIG1        0.1351
     10 H           2.0338   -1.3245    0.0000 H       1  LIG1        0.0473
     11 H           0.4851   -1.8427   -0.9121 H       1  LIG1        0.0473
     12 H           0.5057   -1.8150    0.9370 H       1  LIG1        0.0473
     13 H           0.9795    1.8724    0.0000 H       1  LIG1        0.1051
     14 H          -1.2704    1.8724    0.0000 H       1  LIG1        0.0814
     15 H          -2.5164    0.1573    0.0000 H       1  LIG1        0.0633
     16 H          -1.2704   -1.5577    0.0000 H       1  LIG1        0.0654
@<TRIPOS>BOND
     1     1     2    1
     2     2     3   ar
     3     3     4   ar
     4     4     5   ar
     5     5     6   ar
     6     6     7   ar
     7     7     8   ar
     8     8     9   ar
     9     2     9   ar
    10     5     9   ar
    11     1    10    1
    12     1    11    1
    13     1    12    1
    14     4    13    1
    15     6    14    1
    16     7    15    1
    17     8    16    1
