@<TRIPOS>MOLECULE
O=c1ccn2cnnc2[nH]1
 14 15 0 0 0
SMALL
GASTEIGER
Energy = 0

@<TRIPOS>ATOM
      1 O           1.7723    0.7087    0.0000 O.2     1  LIG1       -0.2678
      2 C           1.0579    0.2962    0.0000 C.ar    1  LIG1        0.2527
      3 N           0.3434    0.7087    0.0000 N.ar    1  LIG1       -0.2913
      4 C          -0.3711    0.2962    0.0000 C.ar    1  LIG1        0.2361
      5 N          -1.1557    0.5512    0.0000 N.ar    1  LIG1       -0.1106
      6 N          -1.6406   -0.1163    0.0000 N.ar    1  LIG1       -0.1357
      7 C          -1.1557   -0.7837    0.0000 C.ar    1  LIG1        0.1253
      8 N          -0.3711   -0.5288    0.0000 N.ar    1  LIG1       -0.2745
      9 C           0.3434   -0.9413    0.0000 C.ar    1  LIG1        0.0191
     10 C           1.0579   -0.5288    0.0000 C.ar    1  LIG1        0.0194
     11 H           0.3434    1.7912    0.0000 H       1  LIG1        0.1718
     12 H          -1.4961   -1.8313    0.0000 H       1  LIG1        0.1052
     13 H           0.3434   -2.0428    0.0000 H       1  LIG1        0.0816
     14 H           2.0118   -1.0796    0.0000 H       1  LIG1        0.0686
@<TRIPOS>BOND
     1     1     2    2
     2     2     3   ar
     3     3     4   ar
     4     4     5   ar
     5     5     6   ar
     6     6     7   ar
     7     7     8   ar
     8     4     8   ar
     9     8     9   ar
    10     9    10   ar
    11     2    10   ar
    12     3    11    1
    13     7    12    1
    14     9    13    1
    15    10    14    1
