@<TRIPOS>MOLECULE
O=c1cnc2[nH]c(=O)ncc2[nH]1
 16 17 0 0 0
SMALL
GASTEIGER
Energy = 0

@<TRIPOS>ATOM
      1 O           2.1523    0.8301    0.0000 O.2     1  LIG1       -0.2662
      2 C           1.4379    0.4176    0.0000 C.ar    1  LIG1        0.2675
      3 N           0.7234    0.8301    0.0000 N.ar    1  LIG1       -0.3172
      4 C           0.0089    0.4176    0.0000 C.ar    1  LIG1        0.1033
      5 C           0.0089   -0.4074    0.0000 C.ar    1  LIG1        0.1600
      6 N          -0.7056   -0.8199    0.0000 N.ar    1  LIG1       -0.2894
      7 C          -1.4200   -0.4074    0.0000 C.ar    1  LIG1        0.3474
      8 O          -2.1345   -0.8199    0.0000 O.2     1  LIG1       -0.2447
      9 N          -1.4200    0.4176    0.0000 N.ar    1  LIG1       -0.1993
     10 C          -0.7056    0.8301    0.0000 C.ar    1  LIG1        0.0600
     11 N           0.7234   -0.8199    0.0000 N.ar    1  LIG1       -0.2305
     12 C           1.4379   -0.4074    0.0000 C.ar    1  LIG1        0.0942
     13 H           0.7234    1.9126    0.0000 H       1  LIG1        0.1691
     14 H          -0.7056   -1.9024    0.0000 H       1  LIG1        0.1719
     15 H          -0.7056    1.9316    0.0000 H       1  LIG1        0.0853
     16 H           2.3918   -0.9582    0.0000 H       1  LIG1        0.0886
@<TRIPOS>BOND
     1     1     2    2
     2     2     3   ar
     3     3     4   ar
     4     4     5   ar
     5     5     6   ar
     6     6     7   ar
     7     7     8    2
     8     7     9   ar
     9     9    10   ar
    10     4    10   ar
    11     5    11   ar
    12    11    12   ar
    13     2    12   ar
    14     3    13    1
    15     6    14    1
    16    10    15    1
    17    12    16    1
