@<TRIPOS>MOLECULE
O=c1cc[nH]c2c[nH]nc12
 15 16 0 0 0
SMALL
GASTEIGER
Energy = 0

@<TRIPOS>ATOM
      1 O           0.5135   -1.4495    0.0000 O.2     1  LIG1       -0.2855
      2 C           0.5135   -0.6245    0.0000 C.ar    1  LIG1        0.2093
      3 C           1.2279   -0.2120    0.0000 C.ar    1  LIG1        0.0033
      4 C           1.2279    0.6130    0.0000 C.ar    1  LIG1        0.0059
      5 N           0.5135    1.0255    0.0000 N.ar    1  LIG1       -0.3581
      6 C          -0.2010    0.6130    0.0000 C.ar    1  LIG1        0.0881
      7 C          -0.9856    0.8680    0.0000 C.ar    1  LIG1        0.0464
      8 N          -1.4706    0.2005    0.0000 N.ar    1  LIG1       -0.2820
      9 N          -0.9856   -0.4669    0.0000 N.ar    1  LIG1       -0.1685
     10 C          -0.2010   -0.2120    0.0000 C.ar    1  LIG1        0.1550
     11 H           2.1818   -0.7627    0.0000 H       1  LIG1        0.0671
     12 H           2.1818    1.1637    0.0000 H       1  LIG1        0.0808
     13 H           0.5135    2.1080    0.0000 H       1  LIG1        0.1654
     14 H          -1.3259    1.9156    0.0000 H       1  LIG1        0.0845
     15 H          -2.5531    0.2005    0.0000 H       1  LIG1        0.1883
@<TRIPOS>BOND
     1     1     2    2
     2     2     3   ar
     3     3     4   ar
     4     4     5   ar
     5     5     6   ar
     6     6     7   ar
     7     7     8   ar
     8     8     9   ar
     9     9    10   ar
    10     2    10   ar
    11     6    10   ar
    12     3    11    1
    13     4    12    1
    14     5    13    1
    15     7    14    1
    16     8    15    1
