@<TRIPOS>MOLECULE
c1ccc2nnccc2c1
 16 17 0 0 0
SMALL
GASTEIGER
Energy = 0

@<TRIPOS>ATOM
      1 C           1.4634   -0.4324    0.0000 C.ar    1  LIG1       -0.0611
      2 C           1.4634    0.3926    0.0000 C.ar    1  LIG1       -0.0597
      3 C           0.7489    0.8051    0.0000 C.ar    1  LIG1       -0.0340
      4 C           0.0345    0.3926    0.0000 C.ar    1  LIG1        0.0933
      5 N          -0.6800    0.8051    0.0000 N.ar    1  LIG1       -0.1493
      6 N          -1.3945    0.3926    0.0000 N.ar    1  LIG1       -0.1571
      7 C          -1.3945   -0.4324    0.0000 C.ar    1  LIG1        0.0506
      8 C          -0.6800   -0.8449    0.0000 C.ar    1  LIG1       -0.0326
      9 C           0.0345   -0.4324    0.0000 C.ar    1  LIG1        0.0036
     10 C           0.7489   -0.8449    0.0000 C.ar    1  LIG1       -0.0525
     11 H           2.4173   -0.9832    0.0000 H       1  LIG1        0.0618
     12 H           2.4173    0.9434    0.0000 H       1  LIG1        0.0618
     13 H           0.7489    1.9066    0.0000 H       1  LIG1        0.0639
     14 H          -2.3484   -0.9832    0.0000 H       1  LIG1        0.0848
     15 H          -0.6800   -1.9464    0.0000 H       1  LIG1        0.0640
     16 H           0.7489   -1.9464    0.0000 H       1  LIG1        0.0624
@<TRIPOS>BOND
     1     1     2   ar
     2     2     3   ar
     3     3     4   ar
     4     4     5   ar
     5     5     6   ar
     6     6     7   ar
     7     7     8   ar
     8     8     9   ar
     9     4     9   ar
    10     9    10   ar
    11     1    10   ar
    12     1    11    1
    13     2    12    1
    14     3    13    1
    15     7    14    1
    16     8    15    1
    17    10    16    1
