@<TRIPOS>MOLECULE
c1nc2cnn[nH]c2n1
 12 13 0 0 0
SMALL
GASTEIGER
Energy = 0

@<TRIPOS>ATOM
      1 N           0.5333   -0.8111    0.0000 N.ar    1  LIG1       -0.2403
      2 N           1.2478   -0.3986    0.0000 N.ar    1  LIG1       -0.0666
      3 N           1.2478    0.4264    0.0000 N.ar    1  LIG1       -0.1373
      4 C           0.5333    0.8389    0.0000 C.ar    1  LIG1        0.0805
      5 C          -0.1812    0.4264    0.0000 C.ar    1  LIG1        0.1289
      6 N          -0.9658    0.6814    0.0000 N.ar    1  LIG1       -0.2307
      7 C          -1.4507    0.0139    0.0000 C.ar    1  LIG1        0.1192
      8 N          -0.9658   -0.6535    0.0000 N.ar    1  LIG1       -0.2149
      9 C          -0.1812   -0.3986    0.0000 C.ar    1  LIG1        0.1771
     10 H           0.5333   -1.8936    0.0000 H       1  LIG1        0.1923
     11 H           0.5333    1.9404    0.0000 H       1  LIG1        0.0871
     12 H          -2.5522    0.0139    0.0000 H       1  LIG1        0.1048
@<TRIPOS>BOND
     1     1     2   ar
     2     2     3   ar
     3     3     4   ar
     4     4     5   ar
     5     5     6   ar
     6     6     7   ar
     7     7     8   ar
     8     8     9   ar
     9     1     9   ar
    10     5     9   ar
    11     1    10    1
    12     4    11    1
    13     7    12    1
