@<TRIPOS>MOLECULE
c1c[nH]cn1
 9 9 0 0 0
SMALL
GASTEIGER
Energy = 0

@<TRIPOS>ATOM
      1 N          -0.2033   -0.6674    0.0000 N.ar    1  LIG1       -0.3508
      2 C           0.5813   -0.4125    0.0000 C.ar    1  LIG1        0.0210
      3 C           0.5813    0.4125    0.0000 C.ar    1  LIG1        0.0452
      4 N          -0.2033    0.6674    0.0000 N.ar    1  LIG1       -0.2443
      5 C          -0.6883    0.0000    0.0000 C.ar    1  LIG1        0.0933
      6 H          -0.5378   -1.6969    0.0000 H       1  LIG1        0.1662
      7 H           1.4724   -1.0600    0.0000 H       1  LIG1        0.0822
      8 H           1.4724    1.0600    0.0000 H       1  LIG1        0.0845
      9 H          -1.7898    0.0000    0.0000 H       1  LIG1        0.1026
@<TRIPOS>BOND
     1     1     2   ar
     2     2     3   ar
     3     3     4   ar
     4     4     5   ar
     5     1     5   ar
     6     1     6    1
     7     2     7    1
     8     3     8    1
     9     5     9    1
