@<TRIPOS>MOLECULE
Cn1ncn2ccc(=O)nc12
 17 18 0 0 0
SMALL
GASTEIGER
Energy = 0

@<TRIPOS>ATOM
      1 C           1.2930   -1.2245    0.0000 C.3     1  LIG1        0.0339
      2 N           1.0381   -0.4398    0.0000 N.ar    1  LIG1       -0.2338
      3 N           1.5230    0.2276    0.0000 N.ar    1  LIG1       -0.1585
      4 C           1.0381    0.8950    0.0000 C.ar    1  LIG1        0.1233
      5 N           0.2535    0.6401    0.0000 N.ar    1  LIG1       -0.2745
      6 C          -0.4610    1.0526    0.0000 C.ar    1  LIG1        0.0192
      7 C          -1.1755    0.6401    0.0000 C.ar    1  LIG1        0.0214
      8 C          -1.1755   -0.1849    0.0000 C.ar    1  LIG1        0.2747
      9 O          -1.8899   -0.5974    0.0000 O.2     1  LIG1       -0.2657
     10 N          -0.4610   -0.5974    0.0000 N.ar    1  LIG1       -0.1731
     11 C           0.2535   -0.1849    0.0000 C.ar    1  LIG1        0.2357
     12 H           2.4326   -1.2544    0.0000 H       1  LIG1        0.0474
     13 H           0.8838   -1.7724   -0.9121 H       1  LIG1        0.0474
     14 H           0.9045   -1.7447    0.9370 H       1  LIG1        0.0474
     15 H           1.3785    1.9426    0.0000 H       1  LIG1        0.1051
     16 H          -0.4610    2.1541    0.0000 H       1  LIG1        0.0816
     17 H          -2.1294    1.1909    0.0000 H       1  LIG1        0.0687
@<TRIPOS>BOND
     1     1     2    1
     2     2     3   ar
     3     3     4   ar
     4     4     5   ar
     5     5     6   ar
     6     6     7   ar
     7     7     8   ar
     8     8     9    2
     9     8    10   ar
    10    10    11   ar
    11     2    11   ar
    12     5    11   ar
    13     1    12    1
    14     1    13    1
    15     1    14    1
    16     4    15    1
    17     6    16    1
    18     7    17    1
