@<TRIPOS>MOLECULE
O=c1ccn2ncsc2c1
 14 15 0 0 0
SMALL
GASTEIGER
Energy = 0

@<TRIPOS>ATOM
      1 O           1.9113   -0.6601    0.0000 O.2     1  LIG1       -0.2878
      2 C           1.1968   -0.2476    0.0000 C.ar    1  LIG1        0.1829
      3 C           1.1968    0.5774    0.0000 C.ar    1  LIG1        0.0033
      4 C           0.4824    0.9899    0.0000 C.ar    1  LIG1        0.0340
      5 N          -0.2321    0.5774    0.0000 N.ar    1  LIG1       -0.2325
      6 N          -1.0167    0.8323    0.0000 N.ar    1  LIG1       -0.1672
      7 C          -1.5016    0.1649    0.0000 C.ar    1  LIG1        0.0873
      8 S          -1.0167   -0.5025    0.0000 S.2     1  LIG1       -0.0560
      9 C          -0.2321   -0.2476    0.0000 C.ar    1  LIG1        0.1075
     10 C           0.4824   -0.6601    0.0000 C.ar    1  LIG1        0.0173
     11 H           2.1507    1.1281    0.0000 H       1  LIG1        0.0671
     12 H           0.4824    2.0914    0.0000 H       1  LIG1        0.0831
     13 H          -2.6031    0.1649    0.0000 H       1  LIG1        0.0926
     14 H           0.4824   -1.7616    0.0000 H       1  LIG1        0.0682
@<TRIPOS>BOND
     1     1     2    2
     2     2     3   ar
     3     3     4   ar
     4     4     5   ar
     5     5     6   ar
     6     6     7   ar
     7     7     8   ar
     8     8     9   ar
     9     5     9   ar
    10     9    10   ar
    11     2    10   ar
    12     3    11    1
    13     4    12    1
    14     7    13    1
    15    10    14    1
