@<TRIPOS>MOLECULE
c1cc2cnnnc2o1
 12 13 0 0 0
SMALL
GASTEIGER
Energy = 0

@<TRIPOS>ATOM
      1 O           0.9658   -0.6309    0.0000 O.2     1  LIG1       -0.4439
      2 C           1.4507    0.0365    0.0000 C.ar    1  LIG1        0.0952
      3 C           0.9658    0.7039    0.0000 C.ar    1  LIG1       -0.0129
      4 C           0.1812    0.4490    0.0000 C.ar    1  LIG1        0.0612
      5 C          -0.5333    0.8615    0.0000 C.ar    1  LIG1        0.0640
      6 N          -1.2478    0.4490    0.0000 N.ar    1  LIG1       -0.1369
      7 N          -1.2478   -0.3760    0.0000 N.ar    1  LIG1       -0.0398
      8 N          -0.5333   -0.7885    0.0000 N.ar    1  LIG1       -0.0906
      9 C           0.1812   -0.3760    0.0000 C.ar    1  LIG1        0.2497
     10 H           2.5522    0.0365    0.0000 H       1  LIG1        0.1030
     11 H           1.3062    1.7515    0.0000 H       1  LIG1        0.0656
     12 H          -0.5333    1.9630    0.0000 H       1  LIG1        0.0856
@<TRIPOS>BOND
     1     1     2   ar
     2     2     3   ar
     3     3     4   ar
     4     4     5   ar
     5     5     6   ar
     6     6     7   ar
     7     7     8   ar
     8     8     9   ar
     9     1     9   ar
    10     4     9   ar
    11     2    10    1
    12     3    11    1
    13     5    12    1
