@<TRIPOS>MOLECULE
O=c1ncn2c(=O)ncn12
 12 13 0 0 0
SMALL
GASTEIGER
Energy = 0

@<TRIPOS>ATOM
      1 O           1.0396   -1.4521    0.0000 O.2     1  LIG1       -0.2425
      2 C           0.7846   -0.6674    0.0000 C.ar    1  LIG1        0.3704
      3 N           1.2695   -0.0000    0.0000 N.ar    1  LIG1       -0.1799
      4 C           0.7846    0.6674    0.0000 C.ar    1  LIG1        0.1269
      5 N          -0.0000    0.4125    0.0000 N.ar    1  LIG1       -0.1799
      6 N          -0.0000   -0.4125    0.0000 N.ar    1  LIG1       -0.1799
      7 C          -0.7846   -0.6674    0.0000 C.ar    1  LIG1        0.1269
      8 N          -1.2695    0.0000    0.0000 N.ar    1  LIG1       -0.1799
      9 C          -0.7846    0.6674    0.0000 C.ar    1  LIG1        0.3704
     10 O          -1.0396    1.4521    0.0000 O.2     1  LIG1       -0.2425
     11 H           1.1250    1.7150    0.0000 H       1  LIG1        0.1050
     12 H          -1.1250   -1.7150    0.0000 H       1  LIG1        0.1050
@<TRIPOS>BOND
     1     1     2    2
     2     2     3   ar
     3     3     4   ar
     4     4     5   ar
     5     5     6   ar
     6     2     6   ar
     7     6     7   ar
     8     7     8   ar
     9     8     9   ar
    10     5     9   ar
    11     9    10    2
    12     4    11    1
    13     7    12    1
