@<TRIPOS>MOLECULE
O=c1ccc2cncn2[nH]1
 15 16 0 0 0
SMALL
GASTEIGER
Energy = 0

@<TRIPOS>ATOM
      1 O           1.7546    0.7045    0.0000 O.2     1  LIG1       -0.2665
      2 C           1.0401    0.2920    0.0000 C.ar    1  LIG1        0.2636
      3 N           0.3257    0.7045    0.0000 N.ar    1  LIG1       -0.2578
      4 N          -0.3888    0.2920    0.0000 N.ar    1  LIG1       -0.2400
      5 C          -1.1734    0.5470    0.0000 C.ar    1  LIG1        0.1161
      6 N          -1.6584   -0.1205    0.0000 N.ar    1  LIG1       -0.2416
      7 C          -1.1734   -0.7879    0.0000 C.ar    1  LIG1        0.0547
      8 C          -0.3888   -0.5330    0.0000 C.ar    1  LIG1        0.0833
      9 C           0.3257   -0.9455    0.0000 C.ar    1  LIG1       -0.0296
     10 C           1.0401   -0.5330    0.0000 C.ar    1  LIG1        0.0061
     11 H           0.3257    1.7870    0.0000 H       1  LIG1        0.1906
     12 H          -1.5137    1.5946    0.0000 H       1  LIG1        0.1047
     13 H          -1.5137   -1.8355    0.0000 H       1  LIG1        0.0852
     14 H           0.3257   -2.0470    0.0000 H       1  LIG1        0.0641
     15 H           1.9940   -1.0837    0.0000 H       1  LIG1        0.0673
@<TRIPOS>BOND
     1     1     2    2
     2     2     3   ar
     3     3     4   ar
     4     4     5   ar
     5     5     6   ar
     6     6     7   ar
     7     7     8   ar
     8     4     8   ar
     9     8     9   ar
    10     9    10   ar
    11     2    10   ar
    12     3    11    1
    13     5    12    1
    14     7    13    1
    15     9    14    1
    16    10    15    1
