@<TRIPOS>MOLECULE
O=c1[nH][nH]c(=O)c2c[nH]cc12
 16 17 0 0 0
SMALL
GASTEIGER
Energy = 0

@<TRIPOS>ATOM
      1 O           0.4172   -1.6500    0.0000 O.2     1  LIG1       -0.2658
      2 C           0.4172   -0.8250    0.0000 C.ar    1  LIG1        0.2724
      3 N           1.1317   -0.4125    0.0000 N.ar    1  LIG1       -0.2628
      4 N           1.1317    0.4125    0.0000 N.ar    1  LIG1       -0.2628
      5 C           0.4172    0.8250    0.0000 C.ar    1  LIG1        0.2724
      6 O           0.4172    1.6500    0.0000 O.2     1  LIG1       -0.2658
      7 C          -0.2973    0.4125    0.0000 C.ar    1  LIG1        0.0702
      8 C          -1.0819    0.6674    0.0000 C.ar    1  LIG1        0.0148
      9 N          -1.5668    0.0000    0.0000 N.ar    1  LIG1       -0.3656
     10 C          -1.0819   -0.6674    0.0000 C.ar    1  LIG1        0.0148
     11 C          -0.2973   -0.4125    0.0000 C.ar    1  LIG1        0.0702
     12 H           2.0692   -0.9538    0.0000 H       1  LIG1        0.1900
     13 H           2.0692    0.9538    0.0000 H       1  LIG1        0.1900
     14 H          -1.4223    1.7150    0.0000 H       1  LIG1        0.0815
     15 H          -2.6493    0.0000    0.0000 H       1  LIG1        0.1648
     16 H          -1.4223   -1.7150    0.0000 H       1  LIG1        0.0815
@<TRIPOS>BOND
     1     1     2    2
     2     2     3   ar
     3     3     4   ar
     4     4     5   ar
     5     5     6    2
     6     5     7   ar
     7     7     8   ar
     8     8     9   ar
     9     9    10   ar
    10    10    11   ar
    11     2    11   ar
    12     7    11   ar
    13     3    12    1
    14     4    13    1
    15     8    14    1
    16     9    15    1
    17    10    16    1
