@<TRIPOS>MOLECULE
O=c1cnc2cccn2[nH]1
 15 16 0 0 0
SMALL
GASTEIGER
Energy = 0

@<TRIPOS>ATOM
      1 O           1.7242    0.7172    0.0000 O.2     1  LIG1       -0.2648
      2 C           1.0097    0.3047    0.0000 C.ar    1  LIG1        0.2817
      3 N           0.2952    0.7172    0.0000 N.ar    1  LIG1       -0.2566
      4 N          -0.4192    0.3047    0.0000 N.ar    1  LIG1       -0.2416
      5 C          -1.2039    0.5596    0.0000 C.ar    1  LIG1        0.0295
      6 C          -1.6888   -0.1078    0.0000 C.ar    1  LIG1       -0.0401
      7 C          -1.2039   -0.7752    0.0000 C.ar    1  LIG1       -0.0161
      8 C          -0.4192   -0.5203    0.0000 C.ar    1  LIG1        0.1522
      9 N           0.2952   -0.9328    0.0000 N.ar    1  LIG1       -0.2308
     10 C           1.0097   -0.5203    0.0000 C.ar    1  LIG1        0.0955
     11 H           0.2952    1.7997    0.0000 H       1  LIG1        0.1906
     12 H          -1.5443    1.6072    0.0000 H       1  LIG1        0.0830
     13 H          -2.7903   -0.1078    0.0000 H       1  LIG1        0.0634
     14 H          -1.5443   -1.8228    0.0000 H       1  LIG1        0.0655
     15 H           1.9636   -1.0711    0.0000 H       1  LIG1        0.0886
@<TRIPOS>BOND
     1     1     2    2
     2     2     3   ar
     3     3     4   ar
     4     4     5   ar
     5     5     6   ar
     6     6     7   ar
     7     7     8   ar
     8     4     8   ar
     9     8     9   ar
    10     9    10   ar
    11     2    10   ar
    12     3    11    1
    13     5    12    1
    14     6    13    1
    15     7    14    1
    16    10    15    1
