@<TRIPOS>MOLECULE
Cn1cnc(=O)n2ccnc12
 17 18 0 0 0
SMALL
GASTEIGER
Energy = 0

@<TRIPOS>ATOM
      1 C           0.4361   -1.6864    0.0000 C.3     1  LIG1        0.0160
      2 N           0.4361   -0.8614    0.0000 N.ar    1  LIG1       -0.3048
      3 C           1.1505   -0.4489    0.0000 C.ar    1  LIG1        0.1037
      4 N           1.1505    0.3761    0.0000 N.ar    1  LIG1       -0.1829
      5 C           0.4361    0.7886    0.0000 C.ar    1  LIG1        0.3565
      6 O           0.4361    1.6136    0.0000 O.2     1  LIG1       -0.2440
      7 N          -0.2784    0.3761    0.0000 N.ar    1  LIG1       -0.2358
      8 C          -1.0630    0.6310    0.0000 C.ar    1  LIG1        0.0356
      9 C          -1.5480   -0.0364    0.0000 C.ar    1  LIG1        0.0481
     10 N          -1.0630   -0.7039    0.0000 N.ar    1  LIG1       -0.2201
     11 C          -0.2784   -0.4489    0.0000 C.ar    1  LIG1        0.2199
     12 H           1.5107   -2.0669    0.0000 H       1  LIG1        0.0457
     13 H          -0.1224   -2.0811   -0.9121 H       1  LIG1        0.0457
     14 H          -0.0941   -2.0611    0.9370 H       1  LIG1        0.0457
     15 H           2.1044   -0.9996    0.0000 H       1  LIG1        0.1031
     16 H          -1.4033    1.6786    0.0000 H       1  LIG1        0.0831
     17 H          -2.6495   -0.0364    0.0000 H       1  LIG1        0.0846
@<TRIPOS>BOND
     1     1     2    1
     2     2     3   ar
     3     3     4   ar
     4     4     5   ar
     5     5     6    2
     6     5     7   ar
     7     7     8   ar
     8     8     9   ar
     9     9    10   ar
    10    10    11   ar
    11     2    11   ar
    12     7    11   ar
    13     1    12    1
    14     1    13    1
    15     1    14    1
    16     3    15    1
    17     8    16    1
    18     9    17    1
