@<TRIPOS>MOLECULE
Cn1ccc2ncnc(=O)n12
 17 18 0 0 0
SMALL
GASTEIGER
Energy = 0

@<TRIPOS>ATOM
      1 C           1.1718   -1.1386    0.0000 C.3     1  LIG1        0.0289
      2 N           0.9168   -0.3539    0.0000 N.ar    1  LIG1       -0.2845
      3 C           1.4017    0.3135    0.0000 C.ar    1  LIG1        0.0259
      4 C           0.9168    0.9809    0.0000 C.ar    1  LIG1        0.0004
      5 C           0.1322    0.7260    0.0000 C.ar    1  LIG1        0.1605
      6 N          -0.5823    1.1385    0.0000 N.ar    1  LIG1       -0.2163
      7 C          -1.2967    0.7260    0.0000 C.ar    1  LIG1        0.1238
      8 N          -1.2967   -0.0990    0.0000 N.ar    1  LIG1       -0.1800
      9 C          -0.5823   -0.5115    0.0000 C.ar    1  LIG1        0.3704
     10 O          -0.5823   -1.3365    0.0000 O.2     1  LIG1       -0.2425
     11 N           0.1322   -0.0990    0.0000 N.ar    1  LIG1       -0.1826
     12 H           2.3114   -1.1684    0.0000 H       1  LIG1        0.0472
     13 H           0.7627   -1.6865   -0.9121 H       1  LIG1        0.0472
     14 H           0.7833   -1.6589    0.9370 H       1  LIG1        0.0472
     15 H           2.5032    0.3135    0.0000 H       1  LIG1        0.0826
     16 H           1.2572    2.0285    0.0000 H       1  LIG1        0.0670
     17 H          -2.2506    1.2767    0.0000 H       1  LIG1        0.1049
@<TRIPOS>BOND
     1     1     2    1
     2     2     3   ar
     3     3     4   ar
     4     4     5   ar
     5     5     6   ar
     6     6     7   ar
     7     7     8   ar
     8     8     9   ar
     9     9    10    2
    10     9    11   ar
    11     2    11   ar
    12     5    11   ar
    13     1    12    1
    14     1    13    1
    15     1    14    1
    16     3    15    1
    17     4    16    1
    18     7    17    1
