@<TRIPOS>MOLECULE
c1cc2cccnc2[nH]1
 15 16 0 0 0
SMALL
GASTEIGER
Energy = 0

@<TRIPOS>ATOM
      1 N           0.9385   -0.6409    0.0000 N.ar    1  LIG1       -0.3458
      2 C           1.4235    0.0266    0.0000 C.ar    1  LIG1        0.0041
      3 C           0.9385    0.6940    0.0000 C.ar    1  LIG1       -0.0351
      4 C           0.1539    0.4391    0.0000 C.ar    1  LIG1        0.0186
      5 C          -0.5606    0.8516    0.0000 C.ar    1  LIG1       -0.0496
      6 C          -1.2750    0.4391    0.0000 C.ar    1  LIG1       -0.0429
      7 C          -1.2750   -0.3859    0.0000 C.ar    1  LIG1        0.0299
      8 N          -0.5606   -0.7984    0.0000 N.ar    1  LIG1       -0.2375
      9 C           0.1539   -0.3859    0.0000 C.ar    1  LIG1        0.1381
     10 H           1.2730   -1.6704    0.0000 H       1  LIG1        0.1668
     11 H           2.5250    0.0266    0.0000 H       1  LIG1        0.0807
     12 H           1.2788    1.7416    0.0000 H       1  LIG1        0.0639
     13 H          -0.5606    1.9531    0.0000 H       1  LIG1        0.0625
     14 H          -2.2289    0.9898    0.0000 H       1  LIG1        0.0633
     15 H          -2.2289   -0.9366    0.0000 H       1  LIG1        0.0830
@<TRIPOS>BOND
     1     1     2   ar
     2     2     3   ar
     3     3     4   ar
     4     4     5   ar
     5     5     6   ar
     6     6     7   ar
     7     7     8   ar
     8     8     9   ar
     9     1     9   ar
    10     4     9   ar
    11     1    10    1
    12     2    11    1
    13     3    12    1
    14     5    13    1
    15     6    14    1
    16     7    15    1
