@<TRIPOS>MOLECULE
Cn1cnc2nncnc12
 15 16 0 0 0
SMALL
GASTEIGER
Energy = 0

@<TRIPOS>ATOM
      1 C           1.0970   -1.3243    0.0000 C.3     1  LIG1        0.0147
      2 N           0.8421   -0.5397    0.0000 N.ar    1  LIG1       -0.3168
      3 C           1.3270    0.1277    0.0000 C.ar    1  LIG1        0.0997
      4 N           0.8421    0.7952    0.0000 N.ar    1  LIG1       -0.2136
      5 C           0.0575    0.5402    0.0000 C.ar    1  LIG1        0.2189
      6 N          -0.6570    0.9527    0.0000 N.ar    1  LIG1       -0.1244
      7 N          -1.3715    0.5402    0.0000 N.ar    1  LIG1       -0.1356
      8 C          -1.3715   -0.2848    0.0000 C.ar    1  LIG1        0.1407
      9 N          -0.6570   -0.6973    0.0000 N.ar    1  LIG1       -0.2127
     10 C           0.0575   -0.2848    0.0000 C.ar    1  LIG1        0.1825
     11 H           2.2366   -1.3542    0.0000 H       1  LIG1        0.0457
     12 H           0.6878   -1.8722   -0.9121 H       1  LIG1        0.0457
     13 H           0.7085   -1.8445    0.9370 H       1  LIG1        0.0457
     14 H           2.4285    0.1277    0.0000 H       1  LIG1        0.1030
     15 H          -2.3254   -0.8356    0.0000 H       1  LIG1        0.1066
@<TRIPOS>BOND
     1     1     2    1
     2     2     3   ar
     3     3     4   ar
     4     4     5   ar
     5     5     6   ar
     6     6     7   ar
     7     7     8   ar
     8     8     9   ar
     9     9    10   ar
    10     2    10   ar
    11     5    10   ar
    12     1    11    1
    13     1    12    1
    14     1    13    1
    15     3    14    1
    16     8    15    1
