@<TRIPOS>MOLECULE
Cn1nnc2cc[nH]c2c1=O
 17 18 0 0 0
SMALL
GASTEIGER
Energy = 0

@<TRIPOS>ATOM
      1 C          -1.7261   -0.5752    0.0000 C.3     1  LIG1        0.0356
      2 N          -1.0116   -0.1627    0.0000 N.ar    1  LIG1       -0.2123
      3 N          -1.0116    0.6623    0.0000 N.ar    1  LIG1       -0.0623
      4 N          -0.2972    1.0748    0.0000 N.ar    1  LIG1       -0.1292
      5 C           0.4173    0.6623    0.0000 C.ar    1  LIG1        0.1177
      6 C           0.4173   -0.1627    0.0000 C.ar    1  LIG1        0.1335
      7 N           1.2019   -0.4176    0.0000 N.ar    1  LIG1       -0.3551
      8 C           1.6869    0.2498    0.0000 C.ar    1  LIG1        0.0044
      9 C           1.2019    0.9172    0.0000 C.ar    1  LIG1       -0.0163
     10 C          -0.2972   -0.5752    0.0000 C.ar    1  LIG1        0.2938
     11 O          -0.2972   -1.4002    0.0000 O.2     1  LIG1       -0.2639
     12 H          -2.5929    0.1652    0.0000 H       1  LIG1        0.0474
     13 H          -1.7887   -1.2562    0.9121 H       1  LIG1        0.0474
     14 H          -1.7855   -1.2218   -0.9370 H       1  LIG1        0.0474
     15 H           1.5364   -1.4471    0.0000 H       1  LIG1        0.1655
     16 H           2.7884    0.2498    0.0000 H       1  LIG1        0.0807
     17 H           1.5422    1.9648    0.0000 H       1  LIG1        0.0654
@<TRIPOS>BOND
     1     1     2    1
     2     2     3   ar
     3     3     4   ar
     4     4     5   ar
     5     5     6   ar
     6     6     7   ar
     7     7     8   ar
     8     8     9   ar
     9     5     9   ar
    10     6    10   ar
    11     2    10   ar
    12    10    11    2
    13     1    12    1
    14     1    13    1
    15     1    14    1
    16     7    15    1
    17     8    16    1
    18     9    17    1
