@<TRIPOS>MOLECULE
O=c1[nH]ncc2cccnc12
 16 17 0 0 0
SMALL
GASTEIGER
Energy = 0

@<TRIPOS>ATOM
      1 O           0.6039   -1.4526    0.0000 O.2     1  LIG1       -0.2641
      2 C           0.6039   -0.6276    0.0000 C.ar    1  LIG1        0.2907
      3 N           1.3184   -0.2151    0.0000 N.ar    1  LIG1       -0.2414
      4 N           1.3184    0.6099    0.0000 N.ar    1  LIG1       -0.1787
      5 C           0.6039    1.0224    0.0000 C.ar    1  LIG1        0.0572
      6 C          -0.1106    0.6099    0.0000 C.ar    1  LIG1        0.0255
      7 C          -0.8250    1.0224    0.0000 C.ar    1  LIG1       -0.0495
      8 C          -1.5395    0.6099    0.0000 C.ar    1  LIG1       -0.0429
      9 C          -1.5395   -0.2151    0.0000 C.ar    1  LIG1        0.0285
     10 N          -0.8250   -0.6276    0.0000 N.ar    1  LIG1       -0.2494
     11 C          -0.1106   -0.2151    0.0000 C.ar    1  LIG1        0.1379
     12 H           2.2559   -0.7564    0.0000 H       1  LIG1        0.1922
     13 H           0.6039    2.1239    0.0000 H       1  LIG1        0.0854
     14 H          -0.8250    2.1239    0.0000 H       1  LIG1        0.0625
     15 H          -2.4934    1.1607    0.0000 H       1  LIG1        0.0633
     16 H          -2.4934   -0.7659    0.0000 H       1  LIG1        0.0830
@<TRIPOS>BOND
     1     1     2    2
     2     2     3   ar
     3     3     4   ar
     4     4     5   ar
     5     5     6   ar
     6     6     7   ar
     7     7     8   ar
     8     8     9   ar
     9     9    10   ar
    10    10    11   ar
    11     2    11   ar
    12     6    11   ar
    13     3    12    1
    14     5    13    1
    15     7    14    1
    16     8    15    1
    17     9    16    1
