@<TRIPOS>MOLECULE
Cn1c(=O)ccc2nnccc12
 19 20 0 0 0
SMALL
GASTEIGER
Energy = 0

@<TRIPOS>ATOM
      1 C           0.4548   -1.4411    0.0000 C.3     1  LIG1        0.0153
      2 N           0.4548   -0.6161    0.0000 N.ar    1  LIG1       -0.3097
      3 C           1.1692   -0.2036    0.0000 C.ar    1  LIG1        0.2516
      4 O           1.8837   -0.6161    0.0000 O.2     1  LIG1       -0.2677
      5 C           1.1692    0.6214    0.0000 C.ar    1  LIG1        0.0051
      6 C           0.4548    1.0339    0.0000 C.ar    1  LIG1       -0.0274
      7 C          -0.2597    0.6214    0.0000 C.ar    1  LIG1        0.1098
      8 N          -0.9742    1.0339    0.0000 N.ar    1  LIG1       -0.1478
      9 N          -1.6887    0.6214    0.0000 N.ar    1  LIG1       -0.1570
     10 C          -1.6887   -0.2036    0.0000 C.ar    1  LIG1        0.0520
     11 C          -0.9742   -0.6161    0.0000 C.ar    1  LIG1       -0.0161
     12 C          -0.2597   -0.2036    0.0000 C.ar    1  LIG1        0.0732
     13 H           1.5294   -1.8216    0.0000 H       1  LIG1        0.0457
     14 H          -0.1037   -1.8358   -0.9121 H       1  LIG1        0.0457
     15 H          -0.0754   -1.8158    0.9370 H       1  LIG1        0.0457
     16 H           2.1231    1.1721    0.0000 H       1  LIG1        0.0672
     17 H           0.4548    2.1354    0.0000 H       1  LIG1        0.0642
     18 H          -2.6426   -0.7544    0.0000 H       1  LIG1        0.0848
     19 H          -0.9742   -1.7176    0.0000 H       1  LIG1        0.0654
@<TRIPOS>BOND
     1     1     2    1
     2     2     3   ar
     3     3     4    2
     4     3     5   ar
     5     5     6   ar
     6     6     7   ar
     7     7     8   ar
     8     8     9   ar
     9     9    10   ar
    10    10    11   ar
    11    11    12   ar
    12     2    12   ar
    13     7    12   ar
    14     1    13    1
    15     1    14    1
    16     1    15    1
    17     5    16    1
    18     6    17    1
    19    10    18    1
    20    11    19    1
