@<TRIPOS>MOLECULE
O=c1ccn2ncsc2n1
 13 14 0 0 0
SMALL
GASTEIGER
Energy = 0

@<TRIPOS>ATOM
      1 O           1.9049   -0.6513    0.0000 O.2     1  LIG1       -0.2658
      2 C           1.1904   -0.2388    0.0000 C.ar    1  LIG1        0.2740
      3 C           1.1904    0.5862    0.0000 C.ar    1  LIG1        0.0229
      4 C           0.4760    0.9987    0.0000 C.ar    1  LIG1        0.0371
      5 N          -0.2385    0.5862    0.0000 N.ar    1  LIG1       -0.2151
      6 N          -1.0231    0.8411    0.0000 N.ar    1  LIG1       -0.1658
      7 C          -1.5081    0.1737    0.0000 C.ar    1  LIG1        0.0888
      8 S          -1.0231   -0.4938    0.0000 S.2     1  LIG1       -0.0362
      9 C          -0.2385   -0.2388    0.0000 C.ar    1  LIG1        0.1983
     10 N           0.4760   -0.6513    0.0000 N.ar    1  LIG1       -0.1829
     11 H           2.1443    1.1369    0.0000 H       1  LIG1        0.0687
     12 H           0.4760    2.1002    0.0000 H       1  LIG1        0.0832
     13 H          -2.6096    0.1737    0.0000 H       1  LIG1        0.0926
@<TRIPOS>BOND
     1     1     2    2
     2     2     3   ar
     3     3     4   ar
     4     4     5   ar
     5     5     6   ar
     6     6     7   ar
     7     7     8   ar
     8     8     9   ar
     9     5     9   ar
    10     9    10   ar
    11     2    10   ar
    12     3    11    1
    13     4    12    1
    14     7    13    1
