@<TRIPOS>MOLECULE
Cn1nnc2ccncc12
 16 17 0 0 0
SMALL
GASTEIGER
Energy = 0

@<TRIPOS>ATOM
      1 C           1.0559   -1.3095    0.0000 C.3     1  LIG1        0.0326
      2 N           0.8010   -0.5249    0.0000 N.ar    1  LIG1       -0.2455
      3 N           1.2859    0.1426    0.0000 N.ar    1  LIG1       -0.0648
      4 N           0.8010    0.8100    0.0000 N.ar    1  LIG1       -0.1294
      5 C           0.0163    0.5551    0.0000 C.ar    1  LIG1        0.1156
      6 C          -0.6981    0.9676    0.0000 C.ar    1  LIG1       -0.0143
      7 C          -1.4126    0.5551    0.0000 C.ar    1  LIG1        0.0298
      8 N          -1.4126   -0.2699    0.0000 N.ar    1  LIG1       -0.2610
      9 C          -0.6981   -0.6824    0.0000 C.ar    1  LIG1        0.0547
     10 C           0.0163   -0.2699    0.0000 C.ar    1  LIG1        0.1067
     11 H           2.1955   -1.3394    0.0000 H       1  LIG1        0.0473
     12 H           0.6467   -1.8574   -0.9121 H       1  LIG1        0.0473
     13 H           0.6674   -1.8297    0.9370 H       1  LIG1        0.0473
     14 H          -0.6981    2.0691    0.0000 H       1  LIG1        0.0655
     15 H          -2.3665    1.1059    0.0000 H       1  LIG1        0.0830
     16 H          -0.6981   -1.7839    0.0000 H       1  LIG1        0.0852
@<TRIPOS>BOND
     1     1     2    1
     2     2     3   ar
     3     3     4   ar
     4     4     5   ar
     5     5     6   ar
     6     6     7   ar
     7     7     8   ar
     8     8     9   ar
     9     9    10   ar
    10     2    10   ar
    11     5    10   ar
    12     1    11    1
    13     1    12    1
    14     1    13    1
    15     6    14    1
    16     7    15    1
    17     9    16    1
