@<TRIPOS>MOLECULE
Cn1ccc(=O)c2cnnnc12
 18 19 0 0 0
SMALL
GASTEIGER
Energy = 0

@<TRIPOS>ATOM
      1 C           0.6228   -1.6711    0.0000 C.3     1  LIG1        0.0133
      2 N           0.6228   -0.8461    0.0000 N.ar    1  LIG1       -0.3333
      3 C           1.3373   -0.4336    0.0000 C.ar    1  LIG1        0.0098
      4 C           1.3373    0.3914    0.0000 C.ar    1  LIG1        0.0020
      5 C           0.6228    0.8039    0.0000 C.ar    1  LIG1        0.1925
      6 O           0.6228    1.6289    0.0000 O.2     1  LIG1       -0.2871
      7 C          -0.0917    0.3914    0.0000 C.ar    1  LIG1        0.0857
      8 C          -0.8061    0.8039    0.0000 C.ar    1  LIG1        0.0660
      9 N          -1.5206    0.3914    0.0000 N.ar    1  LIG1       -0.1369
     10 N          -1.5206   -0.4336    0.0000 N.ar    1  LIG1       -0.0413
     11 N          -0.8061   -0.8461    0.0000 N.ar    1  LIG1       -0.1108
     12 C          -0.0917   -0.4336    0.0000 C.ar    1  LIG1        0.1695
     13 H           1.6974   -2.0516    0.0000 H       1  LIG1        0.0456
     14 H           0.0643   -2.0658   -0.9121 H       1  LIG1        0.0456
     15 H           0.0926   -2.0458    0.9370 H       1  LIG1        0.0456
     16 H           2.2912   -0.9844    0.0000 H       1  LIG1        0.0810
     17 H           2.2912    0.9422    0.0000 H       1  LIG1        0.0670
     18 H          -0.8061    1.9054    0.0000 H       1  LIG1        0.0857
@<TRIPOS>BOND
     1     1     2    1
     2     2     3   ar
     3     3     4   ar
     4     4     5   ar
     5     5     6    2
     6     5     7   ar
     7     7     8   ar
     8     8     9   ar
     9     9    10   ar
    10    10    11   ar
    11    11    12   ar
    12     2    12   ar
    13     7    12   ar
    14     1    13    1
    15     1    14    1
    16     1    15    1
    17     3    16    1
    18     4    17    1
    19     8    18    1
