@<TRIPOS>MOLECULE
Cn1cc2nc[nH]c2c1
 16 17 0 0 0
SMALL
GASTEIGER
Energy = 0

@<TRIPOS>ATOM
      1 C           1.8793    0.0000    0.0000 C.3     1  LIG1        0.0115
      2 N           1.0543    0.0000    0.0000 N.ar    1  LIG1       -0.3522
      3 C           0.5694    0.6674    0.0000 C.ar    1  LIG1        0.0298
      4 C          -0.2153    0.4125    0.0000 C.ar    1  LIG1        0.0837
      5 N          -0.9999    0.6674    0.0000 N.ar    1  LIG1       -0.3432
      6 C          -1.4848    0.0000    0.0000 C.ar    1  LIG1        0.0945
      7 N          -0.9999   -0.6674    0.0000 N.ar    1  LIG1       -0.2344
      8 C          -0.2153   -0.4125    0.0000 C.ar    1  LIG1        0.1062
      9 C           0.5694   -0.6674    0.0000 C.ar    1  LIG1        0.0318
     10 H           2.2598    1.0746    0.0000 H       1  LIG1        0.0455
     11 H           2.2740   -0.5585   -0.9121 H       1  LIG1        0.0455
     12 H           2.2540   -0.5302    0.9370 H       1  LIG1        0.0455
     13 H           0.9098    1.7150    0.0000 H       1  LIG1        0.0830
     14 H          -1.3344    1.6969    0.0000 H       1  LIG1        0.1668
     15 H          -2.5863    0.0000    0.0000 H       1  LIG1        0.1027
     16 H           0.9098   -1.7150    0.0000 H       1  LIG1        0.0831
@<TRIPOS>BOND
     1     1     2    1
     2     2     3   ar
     3     3     4   ar
     4     4     5   ar
     5     5     6   ar
     6     6     7   ar
     7     7     8   ar
     8     4     8   ar
     9     8     9   ar
    10     2     9   ar
    11     1    10    1
    12     1    11    1
    13     1    12    1
    14     3    13    1
    15     5    14    1
    16     6    15    1
    17     9    16    1
