@<TRIPOS>MOLECULE
Cn1ncc2ncsc2c1=O
 16 17 0 0 0
SMALL
GASTEIGER
Energy = 0

@<TRIPOS>ATOM
      1 C          -1.8784   -0.5267    0.0000 C.3     1  LIG1        0.0340
      2 N          -1.1639   -0.1142    0.0000 N.ar    1  LIG1       -0.2316
      3 N          -1.1639    0.7108    0.0000 N.ar    1  LIG1       -0.1747
      4 C          -0.4495    1.1233    0.0000 C.ar    1  LIG1        0.0746
      5 C           0.2650    0.7108    0.0000 C.ar    1  LIG1        0.1031
      6 C           0.2650   -0.1142    0.0000 C.ar    1  LIG1        0.1063
      7 S           1.0496   -0.3692    0.0000 S.2     1  LIG1       -0.0700
      8 C           1.5345    0.2983    0.0000 C.ar    1  LIG1        0.0661
      9 N           1.0496    0.9657    0.0000 N.ar    1  LIG1       -0.2457
     10 C          -0.4495   -0.5267    0.0000 C.ar    1  LIG1        0.2829
     11 O          -0.4495   -1.3517    0.0000 O.2     1  LIG1       -0.2649
     12 H          -2.7452    0.2137    0.0000 H       1  LIG1        0.0474
     13 H          -1.9410   -1.2077    0.9121 H       1  LIG1        0.0474
     14 H          -1.9378   -1.1733   -0.9370 H       1  LIG1        0.0474
     15 H          -0.4495    2.2248    0.0000 H       1  LIG1        0.0869
     16 H           2.6360    0.2983    0.0000 H       1  LIG1        0.0908
@<TRIPOS>BOND
     1     1     2    1
     2     2     3   ar
     3     3     4   ar
     4     4     5   ar
     5     5     6   ar
     6     6     7   ar
     7     7     8   ar
     8     8     9   ar
     9     5     9   ar
    10     6    10   ar
    11     2    10   ar
    12    10    11    2
    13     1    12    1
    14     1    13    1
    15     1    14    1
    16     4    15    1
    17     8    16    1
