@<TRIPOS>MOLECULE
O=c1nc2cnnnc2c[nH]1
 14 15 0 0 0
SMALL
GASTEIGER
Energy = 0

@<TRIPOS>ATOM
      1 O           1.9282   -0.7403    0.0000 O.2     1  LIG1       -0.2447
      2 C           1.2137   -0.3278    0.0000 C.ar    1  LIG1        0.3465
      3 N           1.2137    0.4972    0.0000 N.ar    1  LIG1       -0.3108
      4 C           0.4992    0.9097    0.0000 C.ar    1  LIG1        0.0357
      5 C          -0.2152    0.4972    0.0000 C.ar    1  LIG1        0.1307
      6 N          -0.9297    0.9097    0.0000 N.ar    1  LIG1       -0.1263
      7 N          -1.6442    0.4972    0.0000 N.ar    1  LIG1       -0.0426
      8 N          -1.6442   -0.3278    0.0000 N.ar    1  LIG1       -0.1356
      9 C          -0.9297   -0.7403    0.0000 C.ar    1  LIG1        0.0793
     10 C          -0.2152   -0.3278    0.0000 C.ar    1  LIG1        0.1176
     11 N           0.4992   -0.7403    0.0000 N.ar    1  LIG1       -0.1899
     12 H           2.1512    1.0385    0.0000 H       1  LIG1        0.1699
     13 H           0.4992    2.0112    0.0000 H       1  LIG1        0.0831
     14 H          -0.9297   -1.8418    0.0000 H       1  LIG1        0.0871
@<TRIPOS>BOND
     1     1     2    2
     2     2     3   ar
     3     3     4   ar
     4     4     5   ar
     5     5     6   ar
     6     6     7   ar
     7     7     8   ar
     8     8     9   ar
     9     9    10   ar
    10     5    10   ar
    11    10    11   ar
    12     2    11   ar
    13     3    12    1
    14     4    13    1
    15     9    14    1
