@<TRIPOS>MOLECULE
Cn1ncc2ccoc2c1=O
 17 18 0 0 0
SMALL
GASTEIGER
Energy = 0

@<TRIPOS>ATOM
      1 C          -1.7468   -0.5545    0.0000 C.3     1  LIG1        0.0341
      2 N          -1.0324   -0.1420    0.0000 N.ar    1  LIG1       -0.2296
      3 N          -1.0324    0.6830    0.0000 N.ar    1  LIG1       -0.1761
      4 C          -0.3179    1.0955    0.0000 C.ar    1  LIG1        0.0590
      5 C           0.3966    0.6830    0.0000 C.ar    1  LIG1        0.0453
      6 C           0.3966   -0.1420    0.0000 C.ar    1  LIG1        0.2018
      7 O           1.1812   -0.3970    0.0000 O.2     1  LIG1       -0.4574
      8 C           1.6661    0.2705    0.0000 C.ar    1  LIG1        0.0934
      9 C           1.1812    0.9379    0.0000 C.ar    1  LIG1       -0.0144
     10 C          -0.3179   -0.5545    0.0000 C.ar    1  LIG1        0.3100
     11 O          -0.3179   -1.3795    0.0000 O.2     1  LIG1       -0.2622
     12 H          -2.6137    0.1858    0.0000 H       1  LIG1        0.0474
     13 H          -1.8093   -1.2355    0.9121 H       1  LIG1        0.0474
     14 H          -1.8062   -1.2011   -0.9370 H       1  LIG1        0.0474
     15 H          -0.3179    2.1970    0.0000 H       1  LIG1        0.0854
     16 H           2.7676    0.2705    0.0000 H       1  LIG1        0.1030
     17 H           1.5216    1.9855    0.0000 H       1  LIG1        0.0656
@<TRIPOS>BOND
     1     1     2    1
     2     2     3   ar
     3     3     4   ar
     4     4     5   ar
     5     5     6   ar
     6     6     7   ar
     7     7     8   ar
     8     8     9   ar
     9     5     9   ar
    10     6    10   ar
    11     2    10   ar
    12    10    11    2
    13     1    12    1
    14     1    13    1
    15     1    14    1
    16     4    15    1
    17     8    16    1
    18     9    17    1
