@<TRIPOS>MOLECULE
c1nc2nnccn2n1
 12 13 0 0 0
SMALL
GASTEIGER
Energy = 0

@<TRIPOS>ATOM
      1 C           1.2719    0.4264    0.0000 C.ar    1  LIG1        0.0682
      2 C           0.5575    0.8389    0.0000 C.ar    1  LIG1        0.0528
      3 N          -0.1570    0.4264    0.0000 N.ar    1  LIG1       -0.2015
      4 N          -0.9416    0.6814    0.0000 N.ar    1  LIG1       -0.1522
      5 C          -1.4265    0.0139    0.0000 C.ar    1  LIG1        0.1406
      6 N          -0.9416   -0.6535    0.0000 N.ar    1  LIG1       -0.1962
      7 C          -0.1570   -0.3986    0.0000 C.ar    1  LIG1        0.2719
      8 N           0.5575   -0.8111    0.0000 N.ar    1  LIG1       -0.1086
      9 N           1.2719   -0.3986    0.0000 N.ar    1  LIG1       -0.1526
     10 H           2.2258    0.9771    0.0000 H       1  LIG1        0.0863
     11 H           0.5575    1.9404    0.0000 H       1  LIG1        0.0847
     12 H          -2.5280    0.0139    0.0000 H       1  LIG1        0.1066
@<TRIPOS>BOND
     1     1     2   ar
     2     2     3   ar
     3     3     4   ar
     4     4     5   ar
     5     5     6   ar
     6     6     7   ar
     7     3     7   ar
     8     7     8   ar
     9     8     9   ar
    10     1     9   ar
    11     1    10    1
    12     2    11    1
    13     5    12    1
