@<TRIPOS>MOLECULE
Cn1c(=O)ncc2[nH]ncc12
 17 18 0 0 0
SMALL
GASTEIGER
Energy = 0

@<TRIPOS>ATOM
      1 C          -0.2950   -1.4244    0.0000 C.3     1  LIG1        0.0168
      2 N          -0.2950   -0.5994    0.0000 N.ar    1  LIG1       -0.2922
      3 C          -1.0095   -0.1869    0.0000 C.ar    1  LIG1        0.3487
      4 O          -1.7239   -0.5994    0.0000 O.2     1  LIG1       -0.2445
      5 N          -1.0095    0.6381    0.0000 N.ar    1  LIG1       -0.1992
      6 C          -0.2950    1.0506    0.0000 C.ar    1  LIG1        0.0598
      7 C           0.4195    0.6381    0.0000 C.ar    1  LIG1        0.1003
      8 C           0.4195   -0.1869    0.0000 C.ar    1  LIG1        0.0920
      9 C           1.2041   -0.4418    0.0000 C.ar    1  LIG1        0.0734
     10 N           1.6890    0.2256    0.0000 N.ar    1  LIG1       -0.1796
     11 N           1.2041    0.8930    0.0000 N.ar    1  LIG1       -0.2740
     12 H          -1.3696   -1.8049    0.0000 H       1  LIG1        0.0457
     13 H           0.2635   -1.8191    0.9121 H       1  LIG1        0.0457
     14 H           0.2352   -1.7991   -0.9370 H       1  LIG1        0.0457
     15 H          -0.2950    2.1521    0.0000 H       1  LIG1        0.0853
     16 H           1.5445   -1.4894    0.0000 H       1  LIG1        0.0869
     17 H           1.5386    1.9225    0.0000 H       1  LIG1        0.1890
@<TRIPOS>BOND
     1     1     2    1
     2     2     3   ar
     3     3     4    2
     4     3     5   ar
     5     5     6   ar
     6     6     7   ar
     7     7     8   ar
     8     2     8   ar
     9     8     9   ar
    10     9    10   ar
    11    10    11   ar
    12     7    11   ar
    13     1    12    1
    14     1    13    1
    15     1    14    1
    16     6    15    1
    17     9    16    1
    18    11    17    1
