@<TRIPOS>MOLECULE
c1cn2ccsc2n1
 12 13 0 0 0
SMALL
GASTEIGER
Energy = 0

@<TRIPOS>ATOM
      1 S           0.6667   -0.5518    0.0000 S.2     1  LIG1       -0.0577
      2 C           1.1516    0.1157    0.0000 C.ar    1  LIG1       -0.0044
      3 C           0.6667    0.7831    0.0000 C.ar    1  LIG1        0.0183
      4 N          -0.1180    0.5282    0.0000 N.ar    1  LIG1       -0.3005
      5 C          -0.9026    0.7831    0.0000 C.ar    1  LIG1        0.0298
      6 C          -1.3875    0.1157    0.0000 C.ar    1  LIG1        0.0469
      7 N          -0.9026   -0.5518    0.0000 N.ar    1  LIG1       -0.2297
      8 C          -0.1180   -0.2968    0.0000 C.ar    1  LIG1        0.1772
      9 H           2.2531    0.1157    0.0000 H       1  LIG1        0.0709
     10 H           1.0071    1.8307    0.0000 H       1  LIG1        0.0819
     11 H          -1.2430    1.8307    0.0000 H       1  LIG1        0.0829
     12 H          -2.4890    0.1157    0.0000 H       1  LIG1        0.0845
@<TRIPOS>BOND
     1     1     2   ar
     2     2     3   ar
     3     3     4   ar
     4     4     5   ar
     5     5     6   ar
     6     6     7   ar
     7     7     8   ar
     8     1     8   ar
     9     4     8   ar
    10     2     9    1
    11     3    10    1
    12     5    11    1
    13     6    12    1
