@<TRIPOS>MOLECULE
O=c1ncnc2sccn12
 13 14 0 0 0
SMALL
GASTEIGER
Energy = 0

@<TRIPOS>ATOM
      1 O           0.5988   -1.5633    0.0000 O.2     1  LIG1       -0.2440
      2 C           0.5988   -0.7383    0.0000 C.ar    1  LIG1        0.3558
      3 N           1.3133   -0.3258    0.0000 N.ar    1  LIG1       -0.1811
      4 C           1.3133    0.4992    0.0000 C.ar    1  LIG1        0.1242
      5 N           0.5988    0.9117    0.0000 N.ar    1  LIG1       -0.2110
      6 C          -0.1157    0.4992    0.0000 C.ar    1  LIG1        0.1825
      7 S          -0.9003    0.7541    0.0000 S.2     1  LIG1       -0.0576
      8 C          -1.3852    0.0867    0.0000 C.ar    1  LIG1       -0.0042
      9 C          -0.9003   -0.5808    0.0000 C.ar    1  LIG1        0.0232
     10 N          -0.1157   -0.3258    0.0000 N.ar    1  LIG1       -0.2456
     11 H           2.2672    1.0500    0.0000 H       1  LIG1        0.1049
     12 H          -2.4867    0.0867    0.0000 H       1  LIG1        0.0709
     13 H          -1.2407   -1.6284    0.0000 H       1  LIG1        0.0820
@<TRIPOS>BOND
     1     1     2    2
     2     2     3   ar
     3     3     4   ar
     4     4     5   ar
     5     5     6   ar
     6     6     7   ar
     7     7     8   ar
     8     8     9   ar
     9     9    10   ar
    10     2    10   ar
    11     6    10   ar
    12     4    11    1
    13     8    12    1
    14     9    13    1
