@<TRIPOS>MOLECULE
O=c1cc[nH]c2cc[nH]c12
 16 17 0 0 0
SMALL
GASTEIGER
Energy = 0

@<TRIPOS>ATOM
      1 O          -0.4905   -1.4464    0.0000 O.2     1  LIG1       -0.2856
      2 C          -0.4905   -0.6214    0.0000 C.ar    1  LIG1        0.2055
      3 C          -1.2050   -0.2089    0.0000 C.ar    1  LIG1        0.0031
      4 C          -1.2050    0.6161    0.0000 C.ar    1  LIG1        0.0058
      5 N          -0.4905    1.0286    0.0000 N.ar    1  LIG1       -0.3593
      6 C           0.2239    0.6161    0.0000 C.ar    1  LIG1        0.0680
      7 C           0.2239   -0.2089    0.0000 C.ar    1  LIG1        0.1102
      8 N           1.0086   -0.4638    0.0000 N.ar    1  LIG1       -0.3565
      9 C           1.4935    0.2036    0.0000 C.ar    1  LIG1        0.0043
     10 C           1.0086    0.8711    0.0000 C.ar    1  LIG1       -0.0203
     11 H          -2.1589   -0.7597    0.0000 H       1  LIG1        0.0671
     12 H          -2.1589    1.1669    0.0000 H       1  LIG1        0.0808
     13 H          -0.4905    2.1111    0.0000 H       1  LIG1        0.1654
     14 H           1.3431   -1.4933    0.0000 H       1  LIG1        0.1655
     15 H           2.5950    0.2036    0.0000 H       1  LIG1        0.0807
     16 H           1.3490    1.9187    0.0000 H       1  LIG1        0.0653
@<TRIPOS>BOND
     1     1     2    2
     2     2     3   ar
     3     3     4   ar
     4     4     5   ar
     5     5     6   ar
     6     6     7   ar
     7     2     7   ar
     8     7     8   ar
     9     8     9   ar
    10     9    10   ar
    11     6    10   ar
    12     3    11    1
    13     4    12    1
    14     5    13    1
    15     8    14    1
    16     9    15    1
    17    10    16    1
