@<TRIPOS>MOLECULE
Cn1cnc2[nH]c(=O)ccc12
 18 19 0 0 0
SMALL
GASTEIGER
Energy = 0

@<TRIPOS>ATOM
      1 C           1.3034   -1.4338    0.0000 C.3     1  LIG1        0.0133
      2 N           1.0485   -0.6492    0.0000 N.ar    1  LIG1       -0.3320
      3 C           1.5334    0.0183    0.0000 C.ar    1  LIG1        0.0985
      4 N           1.0485    0.6857    0.0000 N.ar    1  LIG1       -0.2181
      5 C           0.2639    0.4308    0.0000 C.ar    1  LIG1        0.1590
      6 C           0.2639   -0.3942    0.0000 C.ar    1  LIG1        0.0858
      7 C          -0.4506   -0.8067    0.0000 C.ar    1  LIG1       -0.0295
      8 C          -1.1651   -0.3942    0.0000 C.ar    1  LIG1        0.0048
      9 C          -1.1651    0.4308    0.0000 C.ar    1  LIG1        0.2503
     10 O          -1.8796    0.8433    0.0000 O.2     1  LIG1       -0.2679
     11 N          -0.4506    0.8433    0.0000 N.ar    1  LIG1       -0.3058
     12 H           2.4430   -1.4637    0.0000 H       1  LIG1        0.0456
     13 H           0.8942   -1.9817   -0.9121 H       1  LIG1        0.0456
     14 H           0.9149   -1.9540    0.9370 H       1  LIG1        0.0456
     15 H           2.6349    0.0183    0.0000 H       1  LIG1        0.1029
     16 H          -0.4506   -1.9082    0.0000 H       1  LIG1        0.0641
     17 H          -2.1190   -0.9450    0.0000 H       1  LIG1        0.0672
     18 H          -0.4506    1.9258    0.0000 H       1  LIG1        0.1704
@<TRIPOS>BOND
     1     1     2    1
     2     2     3   ar
     3     3     4   ar
     4     4     5   ar
     5     5     6   ar
     6     2     6   ar
     7     6     7   ar
     8     7     8   ar
     9     8     9   ar
    10     9    10    2
    11     9    11   ar
    12     5    11   ar
    13     1    12    1
    14     1    13    1
    15     1    14    1
    16     3    15    1
    17     7    16    1
    18     8    17    1
    19    11    18    1
