@<TRIPOS>MOLECULE
CN1Nc2ccccc2S1(=O)=O
 20 21 0 0 0
SMALL
GASTEIGER
Energy = 0

@<TRIPOS>ATOM
      1 C           1.7511    0.3258    0.0000 C.3     1  LIG1        0.0279
      2 N           0.9261    0.3258    0.0000 N.3     1  LIG1       -0.0995
      3 N           0.4412    0.9933    0.0000 N.pl3   1  LIG1       -0.2574
      4 C          -0.3435    0.7383    0.0000 C.ar    1  LIG1        0.0693
      5 C          -1.0579    1.1508    0.0000 C.ar    1  LIG1       -0.0377
      6 C          -1.7724    0.7383    0.0000 C.ar    1  LIG1       -0.0599
      7 C          -1.7724   -0.0867    0.0000 C.ar    1  LIG1       -0.0598
      8 C          -1.0579   -0.4992    0.0000 C.ar    1  LIG1       -0.0334
      9 C          -0.3435   -0.0867    0.0000 C.ar    1  LIG1        0.1290
     10 S           0.4412   -0.3416    0.0000 S.O2    1  LIG1        0.0775
     11 O           0.9166   -1.0158    0.0000 O.2     1  LIG1       -0.1514
     12 O           0.4528   -1.1665    0.0000 O.2     1  LIG1       -0.1514
     13 H           2.1316    1.4004    0.0000 H       1  LIG1        0.0425
     14 H           2.1458   -0.2327   -0.9121 H       1  LIG1        0.0425
     15 H           2.1258   -0.2044    0.9370 H       1  LIG1        0.0425
     16 H           0.7757    2.0228    0.0000 H       1  LIG1        0.1681
     17 H          -1.0579    2.2523    0.0000 H       1  LIG1        0.0637
     18 H          -2.7263    1.2891    0.0000 H       1  LIG1        0.0618
     19 H          -2.7263   -0.6375    0.0000 H       1  LIG1        0.0618
     20 H          -1.0579   -1.6007    0.0000 H       1  LIG1        0.0638
@<TRIPOS>BOND
     1     1     2    1
     2     2     3    1
     3     3     4    1
     4     4     5   ar
     5     5     6   ar
     6     6     7   ar
     7     7     8   ar
     8     8     9   ar
     9     4     9   ar
    10     9    10    1
    11     2    10    1
    12    10    11    2
    13    10    12    2
    14     1    13    1
    15     1    14    1
    16     1    15    1
    17     3    16    1
    18     5    17    1
    19     6    18    1
    20     7    19    1
    21     8    20    1
