@<TRIPOS>MOLECULE
Cn1ncc2n[nH]c(=O)cc12
 17 18 0 0 0
SMALL
GASTEIGER
Energy = 0

@<TRIPOS>ATOM
      1 C           1.3128   -1.2473    0.0000 C.3     1  LIG1        0.0309
      2 N           1.0579   -0.4627    0.0000 N.ar    1  LIG1       -0.2650
      3 N           1.5428    0.2047    0.0000 N.ar    1  LIG1       -0.1771
      4 C           1.0579    0.8722    0.0000 C.ar    1  LIG1        0.0770
      5 C           0.2733    0.6172    0.0000 C.ar    1  LIG1        0.1287
      6 N          -0.4412    1.0297    0.0000 N.ar    1  LIG1       -0.1678
      7 N          -1.1557    0.6172    0.0000 N.ar    1  LIG1       -0.2425
      8 C          -1.1557   -0.2078    0.0000 C.ar    1  LIG1        0.2667
      9 O          -1.8701   -0.6203    0.0000 O.2     1  LIG1       -0.2664
     10 C          -0.4412   -0.6203    0.0000 C.ar    1  LIG1        0.0313
     11 C           0.2733   -0.2078    0.0000 C.ar    1  LIG1        0.0936
     12 H           2.4524   -1.2772    0.0000 H       1  LIG1        0.0473
     13 H           0.9036   -1.7952   -0.9121 H       1  LIG1        0.0473
     14 H           0.9243   -1.7675    0.9370 H       1  LIG1        0.0473
     15 H           1.3983    1.9198    0.0000 H       1  LIG1        0.0870
     16 H          -2.0932    1.1585    0.0000 H       1  LIG1        0.1921
     17 H          -0.4412   -1.7218    0.0000 H       1  LIG1        0.0694
@<TRIPOS>BOND
     1     1     2    1
     2     2     3   ar
     3     3     4   ar
     4     4     5   ar
     5     5     6   ar
     6     6     7   ar
     7     7     8   ar
     8     8     9    2
     9     8    10   ar
    10    10    11   ar
    11     2    11   ar
    12     5    11   ar
    13     1    12    1
    14     1    13    1
    15     1    14    1
    16     4    15    1
    17     7    16    1
    18    10    17    1
