@<TRIPOS>MOLECULE
O=c1[nH]c(=O)c2occc2[nH]1
 15 16 0 0 0
SMALL
GASTEIGER
Energy = 0

@<TRIPOS>ATOM
      1 O          -1.7094   -0.9266    0.0000 O.2     1  LIG1       -0.2467
      2 C          -0.9949   -0.5141    0.0000 C.ar    1  LIG1        0.3273
      3 N          -0.9949    0.3109    0.0000 N.ar    1  LIG1       -0.2720
      4 C          -0.2805    0.7234    0.0000 C.ar    1  LIG1        0.2971
      5 O          -0.2805    1.5484    0.0000 O.2     1  LIG1       -0.2637
      6 C           0.4340    0.3109    0.0000 C.ar    1  LIG1        0.2149
      7 C           0.4340   -0.5141    0.0000 C.ar    1  LIG1        0.0942
      8 N          -0.2805   -0.9266    0.0000 N.ar    1  LIG1       -0.3045
      9 C           1.2186   -0.7690    0.0000 C.ar    1  LIG1        0.0005
     10 C           1.7035   -0.1016    0.0000 C.ar    1  LIG1        0.0948
     11 O           1.2186    0.5659    0.0000 O.2     1  LIG1       -0.4559
     12 H          -1.9324    0.8521    0.0000 H       1  LIG1        0.1735
     13 H          -0.2805   -2.0091    0.0000 H       1  LIG1        0.1705
     14 H           1.5590   -1.8166    0.0000 H       1  LIG1        0.0670
     15 H           2.8050   -0.1016    0.0000 H       1  LIG1        0.1030
@<TRIPOS>BOND
     1     1     2    2
     2     2     3   ar
     3     3     4   ar
     4     4     5    2
     5     4     6   ar
     6     6     7   ar
     7     7     8   ar
     8     2     8   ar
     9     7     9   ar
    10     9    10   ar
    11    10    11   ar
    12     6    11   ar
    13     3    12    1
    14     8    13    1
    15     9    14    1
    16    10    15    1
