@<TRIPOS>MOLECULE
Cn1cc2cnsc2nc1=O
 16 17 0 0 0
SMALL
GASTEIGER
Energy = 0

@<TRIPOS>ATOM
      1 C           1.7522    0.9329    0.0000 C.3     1  LIG1        0.0162
      2 N           1.0377    0.5204    0.0000 N.ar    1  LIG1       -0.3015
      3 C           0.3232    0.9329    0.0000 C.ar    1  LIG1        0.0203
      4 C          -0.3912    0.5204    0.0000 C.ar    1  LIG1        0.0436
      5 C          -1.1759    0.7754    0.0000 C.ar    1  LIG1        0.0473
      6 N          -1.6608    0.1079    0.0000 N.ar    1  LIG1       -0.2160
      7 S          -1.1759   -0.5595    0.0000 S.2     1  LIG1        0.0318
      8 C          -0.3912   -0.3046    0.0000 C.ar    1  LIG1        0.1345
      9 N           0.3232   -0.7171    0.0000 N.ar    1  LIG1       -0.1842
     10 C           1.0377   -0.3046    0.0000 C.ar    1  LIG1        0.3492
     11 O           1.7522   -0.7171    0.0000 O.2     1  LIG1       -0.2445
     12 H           1.5445    2.0538    0.0000 H       1  LIG1        0.0457
     13 H           2.3732    0.6466   -0.9121 H       1  LIG1        0.0457
     14 H           2.3419    0.6611    0.9370 H       1  LIG1        0.0457
     15 H           0.3232    2.0344    0.0000 H       1  LIG1        0.0818
     16 H          -1.5163    1.8230    0.0000 H       1  LIG1        0.0844
@<TRIPOS>BOND
     1     1     2    1
     2     2     3   ar
     3     3     4   ar
     4     4     5   ar
     5     5     6   ar
     6     6     7   ar
     7     7     8   ar
     8     4     8   ar
     9     8     9   ar
    10     9    10   ar
    11     2    10   ar
    12    10    11    2
    13     1    12    1
    14     1    13    1
    15     1    14    1
    16     3    15    1
    17     5    16    1
