@<TRIPOS>MOLECULE
Cn1cnc(=O)c2cccnc12
 19 20 0 0 0
SMALL
GASTEIGER
Energy = 0

@<TRIPOS>ATOM
      1 C           0.5661   -1.6767    0.0000 C.3     1  LIG1        0.0146
      2 N           0.5661   -0.8517    0.0000 N.ar    1  LIG1       -0.3192
      3 C           1.2806   -0.4392    0.0000 C.ar    1  LIG1        0.1011
      4 N           1.2806    0.3858    0.0000 N.ar    1  LIG1       -0.1988
      5 C           0.5661    0.7983    0.0000 C.ar    1  LIG1        0.2822
      6 O           0.5661    1.6233    0.0000 O.2     1  LIG1       -0.2651
      7 C          -0.1484    0.3858    0.0000 C.ar    1  LIG1        0.0836
      8 C          -0.8628    0.7983    0.0000 C.ar    1  LIG1       -0.0444
      9 C          -1.5773    0.3858    0.0000 C.ar    1  LIG1       -0.0427
     10 C          -1.5773   -0.4392    0.0000 C.ar    1  LIG1        0.0299
     11 N          -0.8628   -0.8517    0.0000 N.ar    1  LIG1       -0.2371
     12 C          -0.1484   -0.4392    0.0000 C.ar    1  LIG1        0.1467
     13 H           1.6407   -2.0572    0.0000 H       1  LIG1        0.0457
     14 H           0.0076   -2.0714   -0.9121 H       1  LIG1        0.0457
     15 H           0.0359   -2.0514    0.9370 H       1  LIG1        0.0457
     16 H           2.2345   -0.9900    0.0000 H       1  LIG1        0.1030
     17 H          -0.8628    1.8998    0.0000 H       1  LIG1        0.0627
     18 H          -2.5312    0.9366    0.0000 H       1  LIG1        0.0633
     19 H          -2.5312   -0.9900    0.0000 H       1  LIG1        0.0830
@<TRIPOS>BOND
     1     1     2    1
     2     2     3   ar
     3     3     4   ar
     4     4     5   ar
     5     5     6    2
     6     5     7   ar
     7     7     8   ar
     8     8     9   ar
     9     9    10   ar
    10    10    11   ar
    11    11    12   ar
    12     2    12   ar
    13     7    12   ar
    14     1    13    1
    15     1    14    1
    16     1    15    1
    17     3    16    1
    18     8    17    1
    19     9    18    1
    20    10    19    1
