@<TRIPOS>MOLECULE
O=c1ccc2conc2[nH]1
 14 15 0 0 0
SMALL
GASTEIGER
Energy = 0

@<TRIPOS>ATOM
      1 O           1.7915    0.7025    0.0000 O.2     1  LIG1       -0.2679
      2 C           1.0770    0.2900    0.0000 C.ar    1  LIG1        0.2503
      3 N           0.3625    0.7025    0.0000 N.ar    1  LIG1       -0.3043
      4 C          -0.3519    0.2900    0.0000 C.ar    1  LIG1        0.1833
      5 N          -1.1365    0.5449    0.0000 N.ar    1  LIG1       -0.0601
      6 O          -1.6215   -0.1225    0.0000 O.2     1  LIG1       -0.3603
      7 C          -1.1365   -0.7899    0.0000 C.ar    1  LIG1        0.1335
      8 C          -0.3519   -0.5350    0.0000 C.ar    1  LIG1        0.0581
      9 C           0.3625   -0.9475    0.0000 C.ar    1  LIG1       -0.0429
     10 C           1.0770   -0.5350    0.0000 C.ar    1  LIG1        0.0036
     11 H           0.3625    1.7850    0.0000 H       1  LIG1        0.1704
     12 H          -1.4768   -1.8375    0.0000 H       1  LIG1        0.1064
     13 H           0.3625   -2.0490    0.0000 H       1  LIG1        0.0627
     14 H           2.0309   -1.0858    0.0000 H       1  LIG1        0.0672
@<TRIPOS>BOND
     1     1     2    2
     2     2     3   ar
     3     3     4   ar
     4     4     5   ar
     5     5     6   ar
     6     6     7   ar
     7     7     8   ar
     8     4     8   ar
     9     8     9   ar
    10     9    10   ar
    11     2    10   ar
    12     3    11    1
    13     7    12    1
    14     9    13    1
    15    10    14    1
