@<TRIPOS>MOLECULE
Cn1cnc(=O)c2ccnnc12
 18 19 0 0 0
SMALL
GASTEIGER
Energy = 0

@<TRIPOS>ATOM
      1 C           0.5863   -1.6711    0.0000 C.3     1  LIG1        0.0146
      2 N           0.5863   -0.8461    0.0000 N.ar    1  LIG1       -0.3178
      3 C           1.3007   -0.4336    0.0000 C.ar    1  LIG1        0.1012
      4 N           1.3007    0.3914    0.0000 N.ar    1  LIG1       -0.1988
      5 C           0.5863    0.8039    0.0000 C.ar    1  LIG1        0.2823
      6 O           0.5863    1.6289    0.0000 O.2     1  LIG1       -0.2651
      7 C          -0.1282    0.3914    0.0000 C.ar    1  LIG1        0.0868
      8 C          -0.8427    0.8039    0.0000 C.ar    1  LIG1       -0.0259
      9 C          -1.5571    0.3914    0.0000 C.ar    1  LIG1        0.0508
     10 N          -1.5571   -0.4336    0.0000 N.ar    1  LIG1       -0.1557
     11 N          -0.8427   -0.8461    0.0000 N.ar    1  LIG1       -0.1307
     12 C          -0.1282   -0.4336    0.0000 C.ar    1  LIG1        0.1690
     13 H           1.6609   -2.0516    0.0000 H       1  LIG1        0.0457
     14 H           0.0278   -2.0658   -0.9121 H       1  LIG1        0.0457
     15 H           0.0561   -2.0458    0.9370 H       1  LIG1        0.0457
     16 H           2.2546   -0.9843    0.0000 H       1  LIG1        0.1030
     17 H          -0.8427    1.9054    0.0000 H       1  LIG1        0.0642
     18 H          -2.5110    0.9421    0.0000 H       1  LIG1        0.0848
@<TRIPOS>BOND
     1     1     2    1
     2     2     3   ar
     3     3     4   ar
     4     4     5   ar
     5     5     6    2
     6     5     7   ar
     7     7     8   ar
     8     8     9   ar
     9     9    10   ar
    10    10    11   ar
    11    11    12   ar
    12     2    12   ar
    13     7    12   ar
    14     1    13    1
    15     1    14    1
    16     1    15    1
    17     3    16    1
    18     8    17    1
    19     9    18    1
