@<TRIPOS>MOLECULE
Cn1cc2ccccc2c1
 19 20 0 0 0
SMALL
GASTEIGER
Energy = 0

@<TRIPOS>ATOM
      1 C           2.0102    0.0000    0.0000 C.3     1  LIG1        0.0114
      2 N           1.1852    0.0000    0.0000 N.ar    1  LIG1       -0.3551
      3 C           0.7003    0.6674    0.0000 C.ar    1  LIG1        0.0120
      4 C          -0.0843    0.4125    0.0000 C.ar    1  LIG1       -0.0004
      5 C          -0.7988    0.8250    0.0000 C.ar    1  LIG1       -0.0526
      6 C          -1.5133    0.4125    0.0000 C.ar    1  LIG1       -0.0611
      7 C          -1.5133   -0.4125    0.0000 C.ar    1  LIG1       -0.0611
      8 C          -0.7988   -0.8250    0.0000 C.ar    1  LIG1       -0.0526
      9 C          -0.0843   -0.4125    0.0000 C.ar    1  LIG1       -0.0004
     10 C           0.7003   -0.6674    0.0000 C.ar    1  LIG1        0.0120
     11 H           2.3907    1.0746    0.0000 H       1  LIG1        0.0455
     12 H           2.4049   -0.5585   -0.9121 H       1  LIG1        0.0455
     13 H           2.3849   -0.5302    0.9370 H       1  LIG1        0.0455
     14 H           1.0407    1.7150    0.0000 H       1  LIG1        0.0815
     15 H          -0.7988    1.9265    0.0000 H       1  LIG1        0.0624
     16 H          -2.4672    0.9633    0.0000 H       1  LIG1        0.0618
     17 H          -2.4672   -0.9633    0.0000 H       1  LIG1        0.0618
     18 H          -0.7988   -1.9265    0.0000 H       1  LIG1        0.0624
     19 H           1.0407   -1.7150    0.0000 H       1  LIG1        0.0815
@<TRIPOS>BOND
     1     1     2    1
     2     2     3   ar
     3     3     4   ar
     4     4     5   ar
     5     5     6   ar
     6     6     7   ar
     7     7     8   ar
     8     8     9   ar
     9     4     9   ar
    10     9    10   ar
    11     2    10   ar
    12     1    11    1
    13     1    12    1
    14     1    13    1
    15     3    14    1
    16     5    15    1
    17     6    16    1
    18     7    17    1
    19     8    18    1
    20    10    19    1
