@<TRIPOS>MOLECULE
Cn1ncc2[nH]cnc12
 15 16 0 0 0
SMALL
GASTEIGER
Energy = 0

@<TRIPOS>ATOM
      1 C           0.9237   -1.2903    0.0000 C.3     1  LIG1        0.0325
      2 N           0.6687   -0.5057    0.0000 N.ar    1  LIG1       -0.2483
      3 N           1.1536    0.1617    0.0000 N.ar    1  LIG1       -0.1759
      4 C           0.6687    0.8292    0.0000 C.ar    1  LIG1        0.0749
      5 C          -0.1159    0.5742    0.0000 C.ar    1  LIG1        0.1047
      6 C          -0.1159   -0.2508    0.0000 C.ar    1  LIG1        0.1760
      7 N          -0.9005   -0.5057    0.0000 N.ar    1  LIG1       -0.2168
      8 C          -1.3854    0.1617    0.0000 C.ar    1  LIG1        0.0962
      9 N          -0.9005    0.8292    0.0000 N.ar    1  LIG1       -0.3419
     10 H           2.0633   -1.3201    0.0000 H       1  LIG1        0.0473
     11 H           0.5146   -1.8383   -0.9121 H       1  LIG1        0.0473
     12 H           0.5352   -1.8106    0.9370 H       1  LIG1        0.0473
     13 H           1.0091    1.8768    0.0000 H       1  LIG1        0.0870
     14 H          -2.4869    0.1617    0.0000 H       1  LIG1        0.1027
     15 H          -1.2350    1.8587    0.0000 H       1  LIG1        0.1669
@<TRIPOS>BOND
     1     1     2    1
     2     2     3   ar
     3     3     4   ar
     4     4     5   ar
     5     5     6   ar
     6     2     6   ar
     7     6     7   ar
     8     7     8   ar
     9     8     9   ar
    10     5     9   ar
    11     1    10    1
    12     1    11    1
    13     1    12    1
    14     4    13    1
    15     8    14    1
    16     9    15    1
