@<TRIPOS>MOLECULE
c1nc2cocc2[nH]1
 12 13 0 0 0
SMALL
GASTEIGER
Energy = 0

@<TRIPOS>ATOM
      1 N           0.8032   -0.6674    0.0000 N.ar    1  LIG1       -0.3419
      2 C           1.2881    0.0000    0.0000 C.ar    1  LIG1        0.0946
      3 N           0.8032    0.6674    0.0000 N.ar    1  LIG1       -0.2328
      4 C           0.0186    0.4125    0.0000 C.ar    1  LIG1        0.1264
      5 C          -0.7661    0.6674    0.0000 C.ar    1  LIG1        0.1191
      6 O          -1.2510    0.0000    0.0000 O.2     1  LIG1       -0.4667
      7 C          -0.7661   -0.6674    0.0000 C.ar    1  LIG1        0.1171
      8 C           0.0186   -0.4125    0.0000 C.ar    1  LIG1        0.1043
      9 H           1.1377   -1.6969    0.0000 H       1  LIG1        0.1669
     10 H           2.3896    0.0000    0.0000 H       1  LIG1        0.1027
     11 H          -1.1065    1.7150    0.0000 H       1  LIG1        0.1052
     12 H          -1.1065   -1.7150    0.0000 H       1  LIG1        0.1051
@<TRIPOS>BOND
     1     1     2   ar
     2     2     3   ar
     3     3     4   ar
     4     4     5   ar
     5     5     6   ar
     6     6     7   ar
     7     7     8   ar
     8     1     8   ar
     9     4     8   ar
    10     1     9    1
    11     2    10    1
    12     5    11    1
    13     7    12    1
