@<TRIPOS>MOLECULE
c1ncc2n[nH]ccc12
 14 15 0 0 0
SMALL
GASTEIGER
Energy = 0

@<TRIPOS>ATOM
      1 N           1.2612   -0.3908    0.0000 N.ar    1  LIG1       -0.2842
      2 C           1.2612    0.4342    0.0000 C.ar    1  LIG1        0.0215
      3 C           0.5467    0.8467    0.0000 C.ar    1  LIG1       -0.0335
      4 C          -0.1677    0.4342    0.0000 C.ar    1  LIG1        0.0230
      5 C          -0.9524    0.6891    0.0000 C.ar    1  LIG1        0.0369
      6 N          -1.4373    0.0217    0.0000 N.ar    1  LIG1       -0.2604
      7 C          -0.9524   -0.6458    0.0000 C.ar    1  LIG1        0.0552
      8 C          -0.1677   -0.3908    0.0000 C.ar    1  LIG1        0.1105
      9 N           0.5467   -0.8033    0.0000 N.ar    1  LIG1       -0.1724
     10 H           2.1987   -0.9321    0.0000 H       1  LIG1        0.1882
     11 H           2.2151    0.9850    0.0000 H       1  LIG1        0.0823
     12 H           0.5467    1.9482    0.0000 H       1  LIG1        0.0639
     13 H          -1.2928    1.7367    0.0000 H       1  LIG1        0.0836
     14 H          -1.2928   -1.6934    0.0000 H       1  LIG1        0.0852
@<TRIPOS>BOND
     1     1     2   ar
     2     2     3   ar
     3     3     4   ar
     4     4     5   ar
     5     5     6   ar
     6     6     7   ar
     7     7     8   ar
     8     4     8   ar
     9     8     9   ar
    10     1     9   ar
    11     1    10    1
    12     2    11    1
    13     3    12    1
    14     5    13    1
    15     7    14    1
