@<TRIPOS>MOLECULE
c1cn2ncnnc2n1
 12 13 0 0 0
SMALL
GASTEIGER
Energy = 0

@<TRIPOS>ATOM
      1 C           1.4519    0.0113    0.0000 C.ar    1  LIG1        0.0497
      2 C           0.9670    0.6787    0.0000 C.ar    1  LIG1        0.0511
      3 N           0.1823    0.4238    0.0000 N.ar    1  LIG1       -0.2015
      4 N          -0.5321    0.8363    0.0000 N.ar    1  LIG1       -0.1505
      5 C          -1.2466    0.4238    0.0000 C.ar    1  LIG1        0.1590
      6 N          -1.2466   -0.4012    0.0000 N.ar    1  LIG1       -0.1325
      7 N          -0.5321   -0.8137    0.0000 N.ar    1  LIG1       -0.1072
      8 C           0.1823   -0.4012    0.0000 C.ar    1  LIG1        0.2705
      9 N           0.9670   -0.6562    0.0000 N.ar    1  LIG1       -0.2163
     10 H           2.5534    0.0113    0.0000 H       1  LIG1        0.0846
     11 H           1.3074    1.7263    0.0000 H       1  LIG1        0.0847
     12 H          -2.2005    0.9746    0.0000 H       1  LIG1        0.1084
@<TRIPOS>BOND
     1     1     2   ar
     2     2     3   ar
     3     3     4   ar
     4     4     5   ar
     5     5     6   ar
     6     6     7   ar
     7     7     8   ar
     8     3     8   ar
     9     8     9   ar
    10     1     9   ar
    11     1    10    1
    12     2    11    1
    13     5    12    1
