@<TRIPOS>MOLECULE
Cn1ccc(=O)n2ccnc12
 18 19 0 0 0
SMALL
GASTEIGER
Energy = 0

@<TRIPOS>ATOM
      1 C           0.4522   -1.6811    0.0000 C.3     1  LIG1        0.0146
      2 N           0.4522   -0.8561    0.0000 N.ar    1  LIG1       -0.3207
      3 C           1.1667   -0.4436    0.0000 C.ar    1  LIG1        0.0126
      4 C           1.1667    0.3814    0.0000 C.ar    1  LIG1        0.0196
      5 C           0.4522    0.7939    0.0000 C.ar    1  LIG1        0.2593
      6 O           0.4522    1.6189    0.0000 O.2     1  LIG1       -0.2672
      7 N          -0.2623    0.3814    0.0000 N.ar    1  LIG1       -0.2522
      8 C          -1.0469    0.6363    0.0000 C.ar    1  LIG1        0.0342
      9 C          -1.5318   -0.0311    0.0000 C.ar    1  LIG1        0.0480
     10 N          -1.0469   -0.6986    0.0000 N.ar    1  LIG1       -0.2201
     11 C          -0.2623   -0.4436    0.0000 C.ar    1  LIG1        0.2177
     12 H           1.5268   -2.0616    0.0000 H       1  LIG1        0.0457
     13 H          -0.1063   -2.0758   -0.9121 H       1  LIG1        0.0457
     14 H          -0.0780   -2.0558    0.9370 H       1  LIG1        0.0457
     15 H           2.1206   -0.9944    0.0000 H       1  LIG1        0.0811
     16 H           2.1206    0.9322    0.0000 H       1  LIG1        0.0686
     17 H          -1.3873    1.6839    0.0000 H       1  LIG1        0.0830
     18 H          -2.6333   -0.0311    0.0000 H       1  LIG1        0.0846
@<TRIPOS>BOND
     1     1     2    1
     2     2     3   ar
     3     3     4   ar
     4     4     5   ar
     5     5     6    2
     6     5     7   ar
     7     7     8   ar
     8     8     9   ar
     9     9    10   ar
    10    10    11   ar
    11     2    11   ar
    12     7    11   ar
    13     1    12    1
    14     1    13    1
    15     1    14    1
    16     3    15    1
    17     4    16    1
    18     8    17    1
    19     9    18    1
