@<TRIPOS>MOLECULE
Cn1cccc2c(=O)ccnc12
 20 21 0 0 0
SMALL
GASTEIGER
Energy = 0

@<TRIPOS>ATOM
      1 C           0.7332   -1.6716    0.0000 C.3     1  LIG1        0.0132
      2 N           0.7332   -0.8466    0.0000 N.ar    1  LIG1       -0.3349
      3 C           1.4477   -0.4341    0.0000 C.ar    1  LIG1        0.0061
      4 C           1.4477    0.3909    0.0000 C.ar    1  LIG1       -0.0448
      5 C           0.7332    0.8034    0.0000 C.ar    1  LIG1       -0.0460
      6 C           0.0187    0.3909    0.0000 C.ar    1  LIG1        0.0641
      7 C          -0.6957    0.8034    0.0000 C.ar    1  LIG1        0.1910
      8 O          -0.6957    1.6284    0.0000 O.2     1  LIG1       -0.2871
      9 C          -1.4102    0.3909    0.0000 C.ar    1  LIG1        0.0039
     10 C          -1.4102   -0.4341    0.0000 C.ar    1  LIG1        0.0336
     11 N          -0.6957   -0.8466    0.0000 N.ar    1  LIG1       -0.2371
     12 C           0.0187   -0.4341    0.0000 C.ar    1  LIG1        0.1441
     13 H           1.8078   -2.0521    0.0000 H       1  LIG1        0.0456
     14 H           0.1747   -2.0663   -0.9121 H       1  LIG1        0.0456
     15 H           0.2030   -2.0463    0.9370 H       1  LIG1        0.0456
     16 H           2.4016   -0.9849    0.0000 H       1  LIG1        0.0809
     17 H           2.4016    0.9417    0.0000 H       1  LIG1        0.0632
     18 H           0.7332    1.9049    0.0000 H       1  LIG1        0.0626
     19 H          -2.3641    0.9417    0.0000 H       1  LIG1        0.0671
     20 H          -2.3641   -0.9849    0.0000 H       1  LIG1        0.0831
@<TRIPOS>BOND
     1     1     2    1
     2     2     3   ar
     3     3     4   ar
     4     4     5   ar
     5     5     6   ar
     6     6     7   ar
     7     7     8    2
     8     7     9   ar
     9     9    10   ar
    10    10    11   ar
    11    11    12   ar
    12     2    12   ar
    13     6    12   ar
    14     1    13    1
    15     1    14    1
    16     1    15    1
    17     3    16    1
    18     4    17    1
    19     5    18    1
    20     9    19    1
    21    10    20    1
