@<TRIPOS>MOLECULE
O=c1nc2cnoc2c[nH]1
 13 14 0 0 0
SMALL
GASTEIGER
Energy = 0

@<TRIPOS>ATOM
      1 O           1.7682   -0.7403    0.0000 O.2     1  LIG1       -0.2447
      2 C           1.0538   -0.3278    0.0000 C.ar    1  LIG1        0.3466
      3 N           1.0538    0.4972    0.0000 N.ar    1  LIG1       -0.3093
      4 C           0.3393    0.9097    0.0000 C.ar    1  LIG1        0.0535
      5 C          -0.3752    0.4972    0.0000 C.ar    1  LIG1        0.2014
      6 O          -1.1598    0.7522    0.0000 O.2     1  LIG1       -0.3516
      7 N          -1.6447    0.0847    0.0000 N.ar    1  LIG1       -0.0838
      8 C          -1.1598   -0.5827    0.0000 C.ar    1  LIG1        0.0963
      9 C          -0.3752   -0.3278    0.0000 C.ar    1  LIG1        0.1366
     10 N           0.3393   -0.7403    0.0000 N.ar    1  LIG1       -0.1882
     11 H           1.9913    1.0385    0.0000 H       1  LIG1        0.1700
     12 H           0.3393    2.0112    0.0000 H       1  LIG1        0.0847
     13 H          -1.5002   -1.6303    0.0000 H       1  LIG1        0.0886
@<TRIPOS>BOND
     1     1     2    2
     2     2     3   ar
     3     3     4   ar
     4     4     5   ar
     5     5     6   ar
     6     6     7   ar
     7     7     8   ar
     8     8     9   ar
     9     5     9   ar
    10     9    10   ar
    11     2    10   ar
    12     3    11    1
    13     4    12    1
    14     8    13    1
