@<TRIPOS>MOLECULE
c1cc2cccnn2c1
 15 16 0 0 0
SMALL
GASTEIGER
Energy = 0

@<TRIPOS>ATOM
      1 C           1.2611    0.4345    0.0000 C.ar    1  LIG1       -0.0399
      2 C           0.5466    0.8470    0.0000 C.ar    1  LIG1       -0.0348
      3 C          -0.1679    0.4345    0.0000 C.ar    1  LIG1        0.0654
      4 C          -0.9525    0.6895    0.0000 C.ar    1  LIG1       -0.0348
      5 C          -1.4374    0.0220    0.0000 C.ar    1  LIG1       -0.0416
      6 C          -0.9525   -0.6454    0.0000 C.ar    1  LIG1        0.0298
      7 N          -0.1679   -0.3905    0.0000 N.ar    1  LIG1       -0.2399
      8 N           0.5466   -0.8030    0.0000 N.ar    1  LIG1       -0.1749
      9 C           1.2611   -0.3905    0.0000 C.ar    1  LIG1        0.0484
     10 H           2.2150    0.9853    0.0000 H       1  LIG1        0.0634
     11 H           0.5466    1.9485    0.0000 H       1  LIG1        0.0639
     12 H          -1.2929    1.7371    0.0000 H       1  LIG1        0.0639
     13 H          -2.5389    0.0220    0.0000 H       1  LIG1        0.0633
     14 H          -1.2929   -1.6930    0.0000 H       1  LIG1        0.0830
     15 H           2.2150   -0.9413    0.0000 H       1  LIG1        0.0847
@<TRIPOS>BOND
     1     1     2   ar
     2     2     3   ar
     3     3     4   ar
     4     4     5   ar
     5     5     6   ar
     6     6     7   ar
     7     3     7   ar
     8     7     8   ar
     9     8     9   ar
    10     1     9   ar
    11     1    10    1
    12     2    11    1
    13     4    12    1
    14     5    13    1
    15     6    14    1
    16     9    15    1
