@<TRIPOS>MOLECULE
Cn1ncc2c(=O)[nH]ccc12
 18 19 0 0 0
SMALL
GASTEIGER
Energy = 0

@<TRIPOS>ATOM
      1 C           1.1458   -1.5115    0.0000 C.3     1  LIG1        0.0309
      2 N           0.8908   -0.7269    0.0000 N.ar    1  LIG1       -0.2665
      3 N           1.3757   -0.0595    0.0000 N.ar    1  LIG1       -0.1786
      4 C           0.8908    0.6080    0.0000 C.ar    1  LIG1        0.0623
      5 C           0.1062    0.3530    0.0000 C.ar    1  LIG1        0.0839
      6 C           0.1062   -0.4720    0.0000 C.ar    1  LIG1        0.0751
      7 C          -0.6083   -0.8845    0.0000 C.ar    1  LIG1       -0.0198
      8 C          -1.3228   -0.4720    0.0000 C.ar    1  LIG1        0.0070
      9 N          -1.3228    0.3530    0.0000 N.ar    1  LIG1       -0.3285
     10 C          -0.6083    0.7655    0.0000 C.ar    1  LIG1        0.2595
     11 O          -0.6083    1.5905    0.0000 O.2     1  LIG1       -0.2671
     12 H           2.2854   -1.5413    0.0000 H       1  LIG1        0.0473
     13 H           0.7367   -2.0595   -0.9121 H       1  LIG1        0.0473
     14 H           0.7573   -2.0318    0.9370 H       1  LIG1        0.0473
     15 H           1.2312    1.6556    0.0000 H       1  LIG1        0.0856
     16 H          -0.6083   -1.9860    0.0000 H       1  LIG1        0.0653
     17 H          -2.2767   -1.0228    0.0000 H       1  LIG1        0.0808
     18 H          -2.2603    0.8943    0.0000 H       1  LIG1        0.1683
@<TRIPOS>BOND
     1     1     2    1
     2     2     3   ar
     3     3     4   ar
     4     4     5   ar
     5     5     6   ar
     6     2     6   ar
     7     6     7   ar
     8     7     8   ar
     9     8     9   ar
    10     9    10   ar
    11     5    10   ar
    12    10    11    2
    13     1    12    1
    14     1    13    1
    15     1    14    1
    16     4    15    1
    17     7    16    1
    18     8    17    1
    19     9    18    1
