@<TRIPOS>MOLECULE
c1cnncn1
 9 9 0 0 0
SMALL
GASTEIGER
Energy = 0

@<TRIPOS>ATOM
      1 C          -0.0000   -0.8461    0.0000 C.ar    1  LIG1        0.0492
      2 C           0.7145   -0.4336    0.0000 C.ar    1  LIG1        0.0680
      3 N           0.7145    0.3914    0.0000 N.ar    1  LIG1       -0.1547
      4 N           0.0000    0.8039    0.0000 N.ar    1  LIG1       -0.1378
      5 C          -0.7145    0.3914    0.0000 C.ar    1  LIG1        0.1382
      6 N          -0.7145   -0.4336    0.0000 N.ar    1  LIG1       -0.2404
      7 H           0.0000   -1.9476    0.0000 H       1  LIG1        0.0846
      8 H           1.6684   -0.9844    0.0000 H       1  LIG1        0.0863
      9 H          -1.6684    0.9422    0.0000 H       1  LIG1        0.1066
@<TRIPOS>BOND
     1     1     2   ar
     2     2     3   ar
     3     3     4   ar
     4     4     5   ar
     5     5     6   ar
     6     1     6   ar
     7     1     7    1
     8     2     8    1
     9     5     9    1
