@<TRIPOS>MOLECULE
Cn1cnc2ncnn2c1=O
 16 17 0 0 0
SMALL
GASTEIGER
Energy = 0

@<TRIPOS>ATOM
      1 C           1.7620   -0.5765    0.0000 C.3     1  LIG1        0.0176
      2 N           1.0476   -0.1640    0.0000 N.ar    1  LIG1       -0.2859
      3 C           1.0476    0.6610    0.0000 C.ar    1  LIG1        0.1034
      4 N           0.3331    1.0735    0.0000 N.ar    1  LIG1       -0.2007
      5 C          -0.3814    0.6610    0.0000 C.ar    1  LIG1        0.2585
      6 N          -1.1660    0.9160    0.0000 N.ar    1  LIG1       -0.1973
      7 C          -1.6509    0.2485    0.0000 C.ar    1  LIG1        0.1407
      8 N          -1.1660   -0.4189    0.0000 N.ar    1  LIG1       -0.1479
      9 N          -0.3814   -0.1640    0.0000 N.ar    1  LIG1       -0.1444
     10 C           0.3331   -0.5765    0.0000 C.ar    1  LIG1        0.3535
     11 O           0.3331   -1.4015    0.0000 O.2     1  LIG1       -0.2443
     12 H           2.6289    0.1638    0.0000 H       1  LIG1        0.0457
     13 H           1.8245   -1.2575   -0.9121 H       1  LIG1        0.0457
     14 H           1.8214   -1.2231    0.9370 H       1  LIG1        0.0457
     15 H           2.0015    1.2118    0.0000 H       1  LIG1        0.1031
     16 H          -2.7524    0.2485    0.0000 H       1  LIG1        0.1066
@<TRIPOS>BOND
     1     1     2    1
     2     2     3   ar
     3     3     4   ar
     4     4     5   ar
     5     5     6   ar
     6     6     7   ar
     7     7     8   ar
     8     8     9   ar
     9     5     9   ar
    10     9    10   ar
    11     2    10   ar
    12    10    11    2
    13     1    12    1
    14     1    13    1
    15     1    14    1
    16     3    15    1
    17     7    16    1
