@<TRIPOS>MOLECULE
Cn1cc2cc[nH]c(=O)c2n1
 18 19 0 0 0
SMALL
GASTEIGER
Energy = 0

@<TRIPOS>ATOM
      1 C           2.1116    0.2010    0.0000 C.3     1  LIG1        0.0302
      2 N           1.2866    0.2010    0.0000 N.ar    1  LIG1       -0.2732
      3 C           0.8016    0.8684    0.0000 C.ar    1  LIG1        0.0331
      4 C           0.0170    0.6135    0.0000 C.ar    1  LIG1        0.0264
      5 C          -0.6975    1.0260    0.0000 C.ar    1  LIG1       -0.0348
      6 C          -1.4119    0.6135    0.0000 C.ar    1  LIG1        0.0057
      7 N          -1.4119   -0.2115    0.0000 N.ar    1  LIG1       -0.3273
      8 C          -0.6975   -0.6240    0.0000 C.ar    1  LIG1        0.2766
      9 O          -0.6975   -1.4490    0.0000 O.2     1  LIG1       -0.2655
     10 C           0.0170   -0.2115    0.0000 C.ar    1  LIG1        0.1567
     11 N           0.8016   -0.4665    0.0000 N.ar    1  LIG1       -0.1660
     12 H           2.4921    1.2756    0.0000 H       1  LIG1        0.0473
     13 H           2.5063   -0.3575   -0.9121 H       1  LIG1        0.0473
     14 H           2.4863   -0.3292    0.9370 H       1  LIG1        0.0473
     15 H           1.1419    1.9160    0.0000 H       1  LIG1        0.0832
     16 H          -0.6975    2.1275    0.0000 H       1  LIG1        0.0639
     17 H          -2.3658    1.1642    0.0000 H       1  LIG1        0.0808
     18 H          -2.3494   -0.7527    0.0000 H       1  LIG1        0.1684
@<TRIPOS>BOND
     1     1     2    1
     2     2     3   ar
     3     3     4   ar
     4     4     5   ar
     5     5     6   ar
     6     6     7   ar
     7     7     8   ar
     8     8     9    2
     9     8    10   ar
    10     4    10   ar
    11    10    11   ar
    12     2    11   ar
    13     1    12    1
    14     1    13    1
    15     1    14    1
    16     3    15    1
    17     5    16    1
    18     6    17    1
    19     7    18    1
