@<TRIPOS>MOLECULE
c1cc2nnccc2o1
 13 14 0 0 0
SMALL
GASTEIGER
Energy = 0

@<TRIPOS>ATOM
      1 O           0.9443   -0.6658    0.0000 O.2     1  LIG1       -0.4612
      2 C           1.4293    0.0017    0.0000 C.ar    1  LIG1        0.0947
      3 C           0.9443    0.6691    0.0000 C.ar    1  LIG1        0.0040
      4 C           0.1597    0.4142    0.0000 C.ar    1  LIG1        0.1311
      5 N          -0.5547    0.8267    0.0000 N.ar    1  LIG1       -0.1461
      6 N          -1.2692    0.4142    0.0000 N.ar    1  LIG1       -0.1569
      7 C          -1.2692   -0.4108    0.0000 C.ar    1  LIG1        0.0535
      8 C          -0.5547   -0.8233    0.0000 C.ar    1  LIG1        0.0027
      9 C           0.1597   -0.4108    0.0000 C.ar    1  LIG1        0.1562
     10 H           2.5308    0.0017    0.0000 H       1  LIG1        0.1030
     11 H           1.2846    1.7167    0.0000 H       1  LIG1        0.0671
     12 H          -2.2231   -0.9616    0.0000 H       1  LIG1        0.0849
     13 H          -0.5547   -1.9248    0.0000 H       1  LIG1        0.0671
@<TRIPOS>BOND
     1     1     2   ar
     2     2     3   ar
     3     3     4   ar
     4     4     5   ar
     5     5     6   ar
     6     6     7   ar
     7     7     8   ar
     8     8     9   ar
     9     1     9   ar
    10     4     9   ar
    11     2    10    1
    12     3    11    1
    13     7    12    1
    14     8    13    1
