@<TRIPOS>MOLECULE
Cn1ccc2oc(=O)[nH]c2c1=O
 18 19 0 0 0
SMALL
GASTEIGER
Energy = 0

@<TRIPOS>ATOM
      1 C          -2.0234   -0.6014    0.0000 C.3     1  LIG1        0.0148
      2 N          -1.3089   -0.1889    0.0000 N.ar    1  LIG1       -0.3164
      3 C          -1.3089    0.6361    0.0000 C.ar    1  LIG1        0.0112
      4 C          -0.5945    1.0486    0.0000 C.ar    1  LIG1       -0.0007
      5 C           0.1200    0.6361    0.0000 C.ar    1  LIG1        0.1635
      6 C           0.1200   -0.1889    0.0000 C.ar    1  LIG1        0.1525
      7 N           0.9046   -0.4438    0.0000 N.ar    1  LIG1       -0.2837
      8 C           1.3896    0.2236    0.0000 C.ar    1  LIG1        0.4188
      9 O           2.2146    0.2236    0.0000 O.2     1  LIG1       -0.2229
     10 O           0.9046    0.8911    0.0000 O.2     1  LIG1       -0.4074
     11 C          -0.5945   -0.6014    0.0000 C.ar    1  LIG1        0.2783
     12 O          -0.5945   -1.4264    0.0000 O.2     1  LIG1       -0.2653
     13 H          -2.8902    0.1390    0.0000 H       1  LIG1        0.0457
     14 H          -2.0860   -1.2824    0.9121 H       1  LIG1        0.0457
     15 H          -2.0828   -1.2480   -0.9370 H       1  LIG1        0.0457
     16 H          -2.2628    1.1868    0.0000 H       1  LIG1        0.0811
     17 H          -0.5945    2.1501    0.0000 H       1  LIG1        0.0670
     18 H           1.2391   -1.4733    0.0000 H       1  LIG1        0.1723
@<TRIPOS>BOND
     1     1     2    1
     2     2     3   ar
     3     3     4   ar
     4     4     5   ar
     5     5     6   ar
     6     6     7   ar
     7     7     8   ar
     8     8     9    2
     9     8    10   ar
    10     5    10   ar
    11     6    11   ar
    12     2    11   ar
    13    11    12    2
    14     1    13    1
    15     1    14    1
    16     1    15    1
    17     3    16    1
    18     4    17    1
    19     7    18    1
