@<TRIPOS>MOLECULE
Cn1ncc2cnnnc12
 15 16 0 0 0
SMALL
GASTEIGER
Energy = 0

@<TRIPOS>ATOM
      1 C           1.1006   -1.2951    0.0000 C.3     1  LIG1        0.0325
      2 N           0.8456   -0.5105    0.0000 N.ar    1  LIG1       -0.2481
      3 N           1.3306    0.1570    0.0000 N.ar    1  LIG1       -0.1773
      4 C           0.8456    0.8244    0.0000 C.ar    1  LIG1        0.0602
      5 C           0.0610    0.5695    0.0000 C.ar    1  LIG1        0.0602
      6 C          -0.6535    0.9820    0.0000 C.ar    1  LIG1        0.0639
      7 N          -1.3679    0.5695    0.0000 N.ar    1  LIG1       -0.1370
      8 N          -1.3679   -0.2555    0.0000 N.ar    1  LIG1       -0.0413
      9 N          -0.6535   -0.6680    0.0000 N.ar    1  LIG1       -0.1095
     10 C           0.0610   -0.2555    0.0000 C.ar    1  LIG1        0.1833
     11 H           2.2402   -1.3249    0.0000 H       1  LIG1        0.0473
     12 H           0.6915   -1.8431   -0.9121 H       1  LIG1        0.0473
     13 H           0.7121   -1.8154    0.9370 H       1  LIG1        0.0473
     14 H           1.1859    1.8720    0.0000 H       1  LIG1        0.0855
     15 H          -0.6535    2.0835    0.0000 H       1  LIG1        0.0856
@<TRIPOS>BOND
     1     1     2    1
     2     2     3   ar
     3     3     4   ar
     4     4     5   ar
     5     5     6   ar
     6     6     7   ar
     7     7     8   ar
     8     8     9   ar
     9     9    10   ar
    10     2    10   ar
    11     5    10   ar
    12     1    11    1
    13     1    12    1
    14     1    13    1
    15     4    14    1
    16     6    15    1
