@<TRIPOS>MOLECULE
c1cocn1
 8 8 0 0 0
SMALL
GASTEIGER
Energy = 0

@<TRIPOS>ATOM
      1 O          -0.1972   -0.6473    0.0000 O.2     1  LIG1       -0.4506
      2 C           0.5874   -0.3924    0.0000 C.ar    1  LIG1        0.1118
      3 C           0.5874    0.4326    0.0000 C.ar    1  LIG1        0.0657
      4 N          -0.1972    0.6876    0.0000 N.ar    1  LIG1       -0.2247
      5 C          -0.6821    0.0201    0.0000 C.ar    1  LIG1        0.1816
      6 H           1.4785   -1.0399    0.0000 H       1  LIG1        0.1046
      7 H           1.4786    1.0800    0.0000 H       1  LIG1        0.0862
      8 H          -1.7836    0.0201    0.0000 H       1  LIG1        0.1254
@<TRIPOS>BOND
     1     1     2   ar
     2     2     3   ar
     3     3     4   ar
     4     4     5   ar
     5     1     5   ar
     6     2     6    1
     7     3     7    1
     8     5     8    1
