@<TRIPOS>MOLECULE
O=c1nc[nH]c2nncnc12
 14 15 0 0 0
SMALL
GASTEIGER
Energy = 0

@<TRIPOS>ATOM
      1 O           0.6460   -1.4806    0.0000 O.2     1  LIG1       -0.2634
      2 C           0.6460   -0.6556    0.0000 C.ar    1  LIG1        0.3007
      3 N           1.3605   -0.2431    0.0000 N.ar    1  LIG1       -0.1976
      4 C           1.3605    0.5819    0.0000 C.ar    1  LIG1        0.0989
      5 N           0.6460    0.9944    0.0000 N.ar    1  LIG1       -0.3277
      6 C          -0.0685    0.5819    0.0000 C.ar    1  LIG1        0.1853
      7 N          -0.7830    0.9944    0.0000 N.ar    1  LIG1       -0.1278
      8 N          -1.4974    0.5819    0.0000 N.ar    1  LIG1       -0.1358
      9 C          -1.4974   -0.2431    0.0000 C.ar    1  LIG1        0.1392
     10 N          -0.7830   -0.6556    0.0000 N.ar    1  LIG1       -0.2250
     11 C          -0.0685   -0.2431    0.0000 C.ar    1  LIG1        0.1754
     12 H           2.3144    1.1327    0.0000 H       1  LIG1        0.1028
     13 H           0.6460    2.0769    0.0000 H       1  LIG1        0.1683
     14 H          -2.4513   -0.7938    0.0000 H       1  LIG1        0.1066
@<TRIPOS>BOND
     1     1     2    2
     2     2     3   ar
     3     3     4   ar
     4     4     5   ar
     5     5     6   ar
     6     6     7   ar
     7     7     8   ar
     8     8     9   ar
     9     9    10   ar
    10    10    11   ar
    11     2    11   ar
    12     6    11   ar
    13     4    12    1
    14     5    13    1
    15     9    14    1
