@<TRIPOS>MOLECULE
Cn1ccc2cnccc12
 18 19 0 0 0
SMALL
GASTEIGER
Energy = 0

@<TRIPOS>ATOM
      1 C           1.0895   -1.3074    0.0000 C.3     1  LIG1        0.0119
      2 N           0.8345   -0.5228    0.0000 N.ar    1  LIG1       -0.3496
      3 C           1.3194    0.1446    0.0000 C.ar    1  LIG1        0.0054
      4 C           0.8345    0.8121    0.0000 C.ar    1  LIG1       -0.0350
      5 C           0.0499    0.5571    0.0000 C.ar    1  LIG1        0.0179
      6 C          -0.6646    0.9696    0.0000 C.ar    1  LIG1        0.0367
      7 N          -1.3790    0.5571    0.0000 N.ar    1  LIG1       -0.2625
      8 C          -1.3790   -0.2679    0.0000 C.ar    1  LIG1        0.0295
      9 C          -0.6646   -0.6804    0.0000 C.ar    1  LIG1       -0.0195
     10 C           0.0499   -0.2679    0.0000 C.ar    1  LIG1        0.0517
     11 H           2.2291   -1.3372    0.0000 H       1  LIG1        0.0456
     12 H           0.6804   -1.8554   -0.9121 H       1  LIG1        0.0456
     13 H           0.7010   -1.8277    0.9370 H       1  LIG1        0.0456
     14 H           2.4209    0.1446    0.0000 H       1  LIG1        0.0809
     15 H           1.1749    1.8597    0.0000 H       1  LIG1        0.0639
     16 H          -0.6646    2.0711    0.0000 H       1  LIG1        0.0836
     17 H          -2.3329   -0.8186    0.0000 H       1  LIG1        0.0830
     18 H          -0.6646   -1.7819    0.0000 H       1  LIG1        0.0653
@<TRIPOS>BOND
     1     1     2    1
     2     2     3   ar
     3     3     4   ar
     4     4     5   ar
     5     5     6   ar
     6     6     7   ar
     7     7     8   ar
     8     8     9   ar
     9     9    10   ar
    10     2    10   ar
    11     5    10   ar
    12     1    11    1
    13     1    12    1
    14     1    13    1
    15     3    14    1
    16     4    15    1
    17     6    16    1
    18     8    17    1
    19     9    18    1
