@<TRIPOS>MOLECULE
c1nsc2cocc12
 11 12 0 0 0
SMALL
GASTEIGER
Energy = 0

@<TRIPOS>ATOM
      1 O           1.3777   -0.1096    0.0000 O.2     1  LIG1       -0.4692
      2 C           0.8928    0.5578    0.0000 C.ar    1  LIG1        0.1074
      3 C           0.1081    0.3029    0.0000 C.ar    1  LIG1        0.0769
      4 S          -0.6765    0.5578    0.0000 S.2     1  LIG1        0.0147
      5 N          -1.1614   -0.1096    0.0000 N.ar    1  LIG1       -0.2174
      6 C          -0.6765   -0.7770    0.0000 C.ar    1  LIG1        0.0474
      7 C           0.1081   -0.5221    0.0000 C.ar    1  LIG1        0.0465
      8 C           0.8928   -0.7770    0.0000 C.ar    1  LIG1        0.1014
      9 H           1.2332    1.6054    0.0000 H       1  LIG1        0.1041
     10 H          -1.0169   -1.8246    0.0000 H       1  LIG1        0.0844
     11 H           1.2332   -1.8246    0.0000 H       1  LIG1        0.1036
@<TRIPOS>BOND
     1     1     2   ar
     2     2     3   ar
     3     3     4   ar
     4     4     5   ar
     5     5     6   ar
     6     6     7   ar
     7     3     7   ar
     8     7     8   ar
     9     1     8   ar
    10     2     9    1
    11     6    10    1
    12     8    11    1
