@<TRIPOS>MOLECULE
c1cc2nnncc2nn1
 13 14 0 0 0
SMALL
GASTEIGER
Energy = 0

@<TRIPOS>ATOM
      1 C           1.4509    0.4188    0.0000 C.ar    1  LIG1        0.0521
      2 C           0.7364    0.8313    0.0000 C.ar    1  LIG1       -0.0124
      3 C           0.0219    0.4188    0.0000 C.ar    1  LIG1        0.1179
      4 N          -0.6925    0.8313    0.0000 N.ar    1  LIG1       -0.1277
      5 N          -1.4070    0.4188    0.0000 N.ar    1  LIG1       -0.0427
      6 N          -1.4070   -0.4062    0.0000 N.ar    1  LIG1       -0.1355
      7 C          -0.6925   -0.8187    0.0000 C.ar    1  LIG1        0.0808
      8 C           0.0219   -0.4062    0.0000 C.ar    1  LIG1        0.1330
      9 N           0.7364   -0.8187    0.0000 N.ar    1  LIG1       -0.1461
     10 N           1.4509   -0.4062    0.0000 N.ar    1  LIG1       -0.1570
     11 H           2.4048    0.9696    0.0000 H       1  LIG1        0.0849
     12 H           0.7364    1.9328    0.0000 H       1  LIG1        0.0656
     13 H          -0.6925   -1.9202    0.0000 H       1  LIG1        0.0871
@<TRIPOS>BOND
     1     1     2   ar
     2     2     3   ar
     3     3     4   ar
     4     4     5   ar
     5     5     6   ar
     6     6     7   ar
     7     7     8   ar
     8     3     8   ar
     9     8     9   ar
    10     9    10   ar
    11     1    10   ar
    12     1    11    1
    13     2    12    1
    14     7    13    1
