@<TRIPOS>MOLECULE
Cn1ccc2[nH]ccc12
 17 18 0 0 0
SMALL
GASTEIGER
Energy = 0

@<TRIPOS>ATOM
      1 C           0.9282   -1.2965    0.0000 C.3     1  LIG1        0.0119
      2 N           0.6732   -0.5118    0.0000 N.ar    1  LIG1       -0.3485
      3 C           1.1582    0.1556    0.0000 C.ar    1  LIG1        0.0068
      4 C           0.6732    0.8230    0.0000 C.ar    1  LIG1       -0.0202
      5 C          -0.1114    0.5681    0.0000 C.ar    1  LIG1        0.0644
      6 C          -0.1114   -0.2569    0.0000 C.ar    1  LIG1        0.0666
      7 C          -0.8960   -0.5118    0.0000 C.ar    1  LIG1       -0.0202
      8 C          -1.3809    0.1556    0.0000 C.ar    1  LIG1        0.0042
      9 N          -0.8960    0.8230    0.0000 N.ar    1  LIG1       -0.3594
     10 H           2.0678   -1.3263    0.0000 H       1  LIG1        0.0456
     11 H           0.5191   -1.8444   -0.9121 H       1  LIG1        0.0456
     12 H           0.5397   -1.8168    0.9370 H       1  LIG1        0.0456
     13 H           2.2597    0.1556    0.0000 H       1  LIG1        0.0809
     14 H           1.0135    1.8706    0.0000 H       1  LIG1        0.0653
     15 H          -1.2364   -1.5594    0.0000 H       1  LIG1        0.0653
     16 H          -2.4824    0.1556    0.0000 H       1  LIG1        0.0807
     17 H          -1.2305    1.8525    0.0000 H       1  LIG1        0.1654
@<TRIPOS>BOND
     1     1     2    1
     2     2     3   ar
     3     3     4   ar
     4     4     5   ar
     5     5     6   ar
     6     2     6   ar
     7     6     7   ar
     8     7     8   ar
     9     8     9   ar
    10     5     9   ar
    11     1    10    1
    12     1    11    1
    13     1    12    1
    14     3    13    1
    15     4    14    1
    16     7    15    1
    17     8    16    1
    18     9    17    1
