@<TRIPOS>MOLECULE
Cn1nc2[nH]ccc2cc1=O
 18 19 0 0 0
SMALL
GASTEIGER
Energy = 0

@<TRIPOS>ATOM
      1 C           1.5794    0.8214    0.0000 C.3     1  LIG1        0.0340
      2 N           0.8649    0.4089    0.0000 N.ar    1  LIG1       -0.2307
      3 N           0.1505    0.8214    0.0000 N.ar    1  LIG1       -0.1503
      4 C          -0.5640    0.4089    0.0000 C.ar    1  LIG1        0.1586
      5 N          -1.3486    0.6638    0.0000 N.ar    1  LIG1       -0.3445
      6 C          -1.8335   -0.0036    0.0000 C.ar    1  LIG1        0.0042
      7 C          -1.3486   -0.6710    0.0000 C.ar    1  LIG1       -0.0349
      8 C          -0.5640   -0.4161    0.0000 C.ar    1  LIG1        0.0255
      9 C           0.1505   -0.8286    0.0000 C.ar    1  LIG1        0.0151
     10 C           0.8649   -0.4161    0.0000 C.ar    1  LIG1        0.2677
     11 O           1.5794   -0.8286    0.0000 O.2     1  LIG1       -0.2662
     12 H           1.3717    1.9423    0.0000 H       1  LIG1        0.0474
     13 H           2.2004    0.5351   -0.9121 H       1  LIG1        0.0474
     14 H           2.1691    0.5496    0.9370 H       1  LIG1        0.0474
     15 H          -1.6831    1.6933    0.0000 H       1  LIG1        0.1668
     16 H          -2.9350   -0.0036    0.0000 H       1  LIG1        0.0807
     17 H          -1.6890   -1.7186    0.0000 H       1  LIG1        0.0639
     18 H           0.1505   -1.9301    0.0000 H       1  LIG1        0.0679
@<TRIPOS>BOND
     1     1     2    1
     2     2     3   ar
     3     3     4   ar
     4     4     5   ar
     5     5     6   ar
     6     6     7   ar
     7     7     8   ar
     8     4     8   ar
     9     8     9   ar
    10     9    10   ar
    11     2    10   ar
    12    10    11    2
    13     1    12    1
    14     1    13    1
    15     1    14    1
    16     5    15    1
    17     6    16    1
    18     7    17    1
    19     9    18    1
