@<TRIPOS>MOLECULE
c1nnc2[nH]ncn12
 11 12 0 0 0
SMALL
GASTEIGER
Energy = 0

@<TRIPOS>ATOM
      1 N           0.7846   -0.6501    0.0000 N.ar    1  LIG1       -0.2433
      2 N           1.2695    0.0174    0.0000 N.ar    1  LIG1       -0.1609
      3 C           0.7846    0.6848    0.0000 C.ar    1  LIG1        0.1243
      4 N           0.0000    0.4299    0.0000 N.ar    1  LIG1       -0.2552
      5 C          -0.7846    0.6848    0.0000 C.ar    1  LIG1        0.1265
      6 N          -1.2695    0.0174    0.0000 N.ar    1  LIG1       -0.1356
      7 N          -0.7846   -0.6501    0.0000 N.ar    1  LIG1       -0.1092
      8 C           0.0000   -0.3951    0.0000 C.ar    1  LIG1        0.2509
      9 H           1.1191   -1.6796    0.0000 H       1  LIG1        0.1921
     10 H           1.1250    1.7324    0.0000 H       1  LIG1        0.1052
     11 H          -1.1250    1.7324    0.0000 H       1  LIG1        0.1052
@<TRIPOS>BOND
     1     1     2   ar
     2     2     3   ar
     3     3     4   ar
     4     4     5   ar
     5     5     6   ar
     6     6     7   ar
     7     7     8   ar
     8     1     8   ar
     9     4     8   ar
    10     1     9    1
    11     3    10    1
    12     5    11    1
