@<TRIPOS>MOLECULE
Cn1c(=O)ncc2c[nH]cc12
 18 19 0 0 0
SMALL
GASTEIGER
Energy = 0

@<TRIPOS>ATOM
      1 C           0.2781   -1.4118    0.0000 C.3     1  LIG1        0.0168
      2 N           0.2781   -0.5868    0.0000 N.ar    1  LIG1       -0.2936
      3 C           0.9925   -0.1743    0.0000 C.ar    1  LIG1        0.3487
      4 O           1.7070   -0.5868    0.0000 O.2     1  LIG1       -0.2445
      5 N           0.9925    0.6507    0.0000 N.ar    1  LIG1       -0.2007
      6 C           0.2781    1.0632    0.0000 C.ar    1  LIG1        0.0435
      7 C          -0.4364    0.6507    0.0000 C.ar    1  LIG1        0.0341
      8 C          -1.2210    0.9056    0.0000 C.ar    1  LIG1        0.0123
      9 N          -1.7060    0.2382    0.0000 N.ar    1  LIG1       -0.3647
     10 C          -1.2210   -0.4293    0.0000 C.ar    1  LIG1        0.0262
     11 C          -0.4364   -0.1743    0.0000 C.ar    1  LIG1        0.0718
     12 H           1.3527   -1.7923    0.0000 H       1  LIG1        0.0457
     13 H          -0.2804   -1.8065   -0.9121 H       1  LIG1        0.0457
     14 H          -0.2521   -1.7865    0.9370 H       1  LIG1        0.0457
     15 H           0.2781    2.1647    0.0000 H       1  LIG1        0.0838
     16 H          -1.5613    1.9532    0.0000 H       1  LIG1        0.0814
     17 H          -2.7885    0.2382    0.0000 H       1  LIG1        0.1648
     18 H          -1.5613   -1.4769    0.0000 H       1  LIG1        0.0828
@<TRIPOS>BOND
     1     1     2    1
     2     2     3   ar
     3     3     4    2
     4     3     5   ar
     5     5     6   ar
     6     6     7   ar
     7     7     8   ar
     8     8     9   ar
     9     9    10   ar
    10    10    11   ar
    11     2    11   ar
    12     7    11   ar
    13     1    12    1
    14     1    13    1
    15     1    14    1
    16     6    15    1
    17     8    16    1
    18     9    17    1
    19    10    18    1
