@<TRIPOS>MOLECULE
Cn1ncc2cc[nH]c12
 16 17 0 0 0
SMALL
GASTEIGER
Energy = 0

@<TRIPOS>ATOM
      1 C           0.9079   -1.2758    0.0000 C.3     1  LIG1        0.0324
      2 N           0.6530   -0.4912    0.0000 N.ar    1  LIG1       -0.2510
      3 N           1.1379    0.1762    0.0000 N.ar    1  LIG1       -0.1775
      4 C           0.6530    0.8437    0.0000 C.ar    1  LIG1        0.0587
      5 C          -0.1317    0.5887    0.0000 C.ar    1  LIG1        0.0380
      6 C          -0.1317   -0.2363    0.0000 C.ar    1  LIG1        0.1361
      7 N          -0.9163   -0.4912    0.0000 N.ar    1  LIG1       -0.3460
      8 C          -1.4012    0.1762    0.0000 C.ar    1  LIG1        0.0042
      9 C          -0.9163    0.8437    0.0000 C.ar    1  LIG1       -0.0336
     10 H           2.0475   -1.3057    0.0000 H       1  LIG1        0.0473
     11 H           0.4987   -1.8237   -0.9121 H       1  LIG1        0.0473
     12 H           0.5194   -1.7960    0.9370 H       1  LIG1        0.0473
     13 H           0.9934    1.8913    0.0000 H       1  LIG1        0.0854
     14 H          -1.2508   -1.5207    0.0000 H       1  LIG1        0.1667
     15 H          -2.5027    0.1762    0.0000 H       1  LIG1        0.0807
     16 H          -1.2567    1.8913    0.0000 H       1  LIG1        0.0639
@<TRIPOS>BOND
     1     1     2    1
     2     2     3   ar
     3     3     4   ar
     4     4     5   ar
     5     5     6   ar
     6     2     6   ar
     7     6     7   ar
     8     7     8   ar
     9     8     9   ar
    10     5     9   ar
    11     1    10    1
    12     1    11    1
    13     1    12    1
    14     4    13    1
    15     7    14    1
    16     8    15    1
    17     9    16    1
