@<TRIPOS>MOLECULE
O=c1ncnc2cc[nH]n12
 14 15 0 0 0
SMALL
GASTEIGER
Energy = 0

@<TRIPOS>ATOM
      1 O           0.4757   -1.4400    0.0000 O.2     1  LIG1       -0.2425
      2 C           0.4757   -0.6150    0.0000 C.ar    1  LIG1        0.3703
      3 N           1.1902   -0.2025    0.0000 N.ar    1  LIG1       -0.1800
      4 C           1.1902    0.6225    0.0000 C.ar    1  LIG1        0.1238
      5 N           0.4757    1.0350    0.0000 N.ar    1  LIG1       -0.2163
      6 C          -0.2388    0.6225    0.0000 C.ar    1  LIG1        0.1603
      7 C          -1.0234    0.8774    0.0000 C.ar    1  LIG1        0.0001
      8 C          -1.5083    0.2100    0.0000 C.ar    1  LIG1        0.0230
      9 N          -1.0234   -0.4575    0.0000 N.ar    1  LIG1       -0.2948
     10 N          -0.2388   -0.2025    0.0000 N.ar    1  LIG1       -0.1849
     11 H           2.1441    1.1733    0.0000 H       1  LIG1        0.1049
     12 H          -1.3638    1.9250    0.0000 H       1  LIG1        0.0670
     13 H          -2.6098    0.2100    0.0000 H       1  LIG1        0.0824
     14 H          -1.3579   -1.4870    0.0000 H       1  LIG1        0.1868
@<TRIPOS>BOND
     1     1     2    2
     2     2     3   ar
     3     3     4   ar
     4     4     5   ar
     5     5     6   ar
     6     6     7   ar
     7     7     8   ar
     8     8     9   ar
     9     9    10   ar
    10     2    10   ar
    11     6    10   ar
    12     4    11    1
    13     7    12    1
    14     8    13    1
    15     9    14    1
