@<TRIPOS>MOLECULE
Cn1sccc1=O
 12 12 0 0 0
SMALL
GASTEIGER
Energy = 0

@<TRIPOS>ATOM
      1 C          -0.2980   -1.2065    0.0000 C.3     1  LIG1        0.0220
      2 N          -0.0430   -0.4218    0.0000 N.ar    1  LIG1       -0.2820
      3 S           0.7416   -0.1669    0.0000 S.2     1  LIG1       -0.0170
      4 C           0.7416    0.6581    0.0000 C.ar    1  LIG1       -0.0023
      5 C          -0.0430    0.9130    0.0000 C.ar    1  LIG1        0.0113
      6 C          -0.5280    0.2456    0.0000 C.ar    1  LIG1        0.2576
      7 O          -1.3530    0.2456    0.0000 O.2     1  LIG1       -0.2671
      8 H           0.6064   -1.9005    0.0000 H       1  LIG1        0.0463
      9 H          -0.9511   -1.4093   -0.9121 H       1  LIG1        0.0463
     10 H          -0.9181   -1.3990    0.9370 H       1  LIG1        0.0463
     11 H           1.6327    1.3056    0.0000 H       1  LIG1        0.0709
     12 H          -0.3833    1.9606    0.0000 H       1  LIG1        0.0677
@<TRIPOS>BOND
     1     1     2    1
     2     2     3   ar
     3     3     4   ar
     4     4     5   ar
     5     5     6   ar
     6     2     6   ar
     7     6     7    2
     8     1     8    1
     9     1     9    1
    10     1    10    1
    11     4    11    1
    12     5    12    1
