@<TRIPOS>MOLECULE
c1cnc2n[nH]nc2n1
 12 13 0 0 0
SMALL
GASTEIGER
Energy = 0

@<TRIPOS>ATOM
      1 N           1.3930    0.0000    0.0000 N.ar    1  LIG1       -0.1926
      2 N           0.9081    0.6674    0.0000 N.ar    1  LIG1       -0.1329
      3 C           0.1235    0.4125    0.0000 C.ar    1  LIG1        0.2203
      4 N          -0.5910    0.8250    0.0000 N.ar    1  LIG1       -0.2301
      5 C          -1.3055    0.4125    0.0000 C.ar    1  LIG1        0.0482
      6 C          -1.3055   -0.4125    0.0000 C.ar    1  LIG1        0.0482
      7 N          -0.5910   -0.8250    0.0000 N.ar    1  LIG1       -0.2301
      8 C           0.1235   -0.4125    0.0000 C.ar    1  LIG1        0.2203
      9 N           0.9081   -0.6674    0.0000 N.ar    1  LIG1       -0.1329
     10 H           2.4755    0.0000    0.0000 H       1  LIG1        0.2127
     11 H          -2.2594    0.9633    0.0000 H       1  LIG1        0.0846
     12 H          -2.2594   -0.9633    0.0000 H       1  LIG1        0.0846
@<TRIPOS>BOND
     1     1     2   ar
     2     2     3   ar
     3     3     4   ar
     4     4     5   ar
     5     5     6   ar
     6     6     7   ar
     7     7     8   ar
     8     3     8   ar
     9     8     9   ar
    10     1     9   ar
    11     1    10    1
    12     5    11    1
    13     6    12    1
