@<TRIPOS>MOLECULE
Cn1ccc2nc[nH]c2c1=O
 18 19 0 0 0
SMALL
GASTEIGER
Energy = 0

@<TRIPOS>ATOM
      1 C          -1.7614   -0.5637    0.0000 C.3     1  LIG1        0.0148
      2 N          -1.0469   -0.1512    0.0000 N.ar    1  LIG1       -0.3165
      3 C          -1.0469    0.6738    0.0000 C.ar    1  LIG1        0.0097
      4 C          -0.3324    1.0863    0.0000 C.ar    1  LIG1       -0.0178
      5 C           0.3820    0.6738    0.0000 C.ar    1  LIG1        0.0955
      6 C           0.3820   -0.1512    0.0000 C.ar    1  LIG1        0.1314
      7 N           1.1667   -0.4061    0.0000 N.ar    1  LIG1       -0.3402
      8 C           1.6516    0.2613    0.0000 C.ar    1  LIG1        0.0946
      9 N           1.1667    0.9288    0.0000 N.ar    1  LIG1       -0.2357
     10 C          -0.3324   -0.5637    0.0000 C.ar    1  LIG1        0.2766
     11 O          -0.3324   -1.3887    0.0000 O.2     1  LIG1       -0.2654
     12 H          -2.6282    0.1767    0.0000 H       1  LIG1        0.0457
     13 H          -1.8240   -1.2447    0.9121 H       1  LIG1        0.0457
     14 H          -1.8208   -1.2103   -0.9370 H       1  LIG1        0.0457
     15 H          -2.0008    1.2246    0.0000 H       1  LIG1        0.0810
     16 H          -0.3324    2.1878    0.0000 H       1  LIG1        0.0654
     17 H           1.5012   -1.4356    0.0000 H       1  LIG1        0.1670
     18 H           2.7531    0.2613    0.0000 H       1  LIG1        0.1027
@<TRIPOS>BOND
     1     1     2    1
     2     2     3   ar
     3     3     4   ar
     4     4     5   ar
     5     5     6   ar
     6     6     7   ar
     7     7     8   ar
     8     8     9   ar
     9     5     9   ar
    10     6    10   ar
    11     2    10   ar
    12    10    11    2
    13     1    12    1
    14     1    13    1
    15     1    14    1
    16     3    15    1
    17     4    16    1
    18     7    17    1
    19     8    18    1
