@<TRIPOS>MOLECULE
c1n[nH]c2nncnc12
 12 13 0 0 0
SMALL
GASTEIGER
Energy = 0

@<TRIPOS>ATOM
      1 N           0.9455   -0.6492    0.0000 N.ar    1  LIG1       -0.2575
      2 N           1.4304    0.0183    0.0000 N.ar    1  LIG1       -0.1783
      3 C           0.9455    0.6857    0.0000 C.ar    1  LIG1        0.0768
      4 C           0.1609    0.4308    0.0000 C.ar    1  LIG1        0.1305
      5 N          -0.5536    0.8433    0.0000 N.ar    1  LIG1       -0.2289
      6 C          -1.2681    0.4308    0.0000 C.ar    1  LIG1        0.1391
      7 N          -1.2681   -0.3942    0.0000 N.ar    1  LIG1       -0.1357
      8 N          -0.5536   -0.8067    0.0000 N.ar    1  LIG1       -0.1266
      9 C           0.1609   -0.3942    0.0000 C.ar    1  LIG1        0.1963
     10 H           1.2800   -1.6787    0.0000 H       1  LIG1        0.1906
     11 H           1.2859    1.7333    0.0000 H       1  LIG1        0.0870
     12 H          -2.2220    0.9816    0.0000 H       1  LIG1        0.1066
@<TRIPOS>BOND
     1     1     2   ar
     2     2     3   ar
     3     3     4   ar
     4     4     5   ar
     5     5     6   ar
     6     6     7   ar
     7     7     8   ar
     8     8     9   ar
     9     1     9   ar
    10     4     9   ar
    11     1    10    1
    12     3    11    1
    13     6    12    1
