@<TRIPOS>MOLECULE
O=c1[nH][nH]c2cc[nH]c(=O)c12
 16 17 0 0 0
SMALL
GASTEIGER
Energy = 0

@<TRIPOS>ATOM
      1 O           1.1145   -1.1158    0.0000 O.2     1  LIG1       -0.2656
      2 C           0.8595   -0.3312    0.0000 C.ar    1  LIG1        0.2775
      3 N           1.3445    0.3363    0.0000 N.ar    1  LIG1       -0.2650
      4 N           0.8595    1.0037    0.0000 N.ar    1  LIG1       -0.2963
      5 C           0.0749    0.7488    0.0000 C.ar    1  LIG1        0.0741
      6 C           0.0749   -0.0762    0.0000 C.ar    1  LIG1        0.1293
      7 C          -0.6396   -0.4887    0.0000 C.ar    1  LIG1        0.2632
      8 O          -0.6396   -1.3137    0.0000 O.2     1  LIG1       -0.2670
      9 N          -1.3540   -0.0762    0.0000 N.ar    1  LIG1       -0.3284
     10 C          -1.3540    0.7488    0.0000 C.ar    1  LIG1        0.0070
     11 C          -0.6396    1.1613    0.0000 C.ar    1  LIG1       -0.0200
     12 H           2.4270    0.3363    0.0000 H       1  LIG1        0.1899
     13 H           1.1940    2.0332    0.0000 H       1  LIG1        0.1868
     14 H          -2.2915   -0.6174    0.0000 H       1  LIG1        0.1683
     15 H          -2.3079    1.2995    0.0000 H       1  LIG1        0.0808
     16 H          -0.6396    2.2628    0.0000 H       1  LIG1        0.0653
@<TRIPOS>BOND
     1     1     2    2
     2     2     3   ar
     3     3     4   ar
     4     4     5   ar
     5     5     6   ar
     6     2     6   ar
     7     6     7   ar
     8     7     8    2
     9     7     9   ar
    10     9    10   ar
    11    10    11   ar
    12     5    11   ar
    13     3    12    1
    14     4    13    1
    15     9    14    1
    16    10    15    1
    17    11    16    1
