@<TRIPOS>MOLECULE
c1nnc2cnccn12
 13 14 0 0 0
SMALL
GASTEIGER
Energy = 0

@<TRIPOS>ATOM
      1 C           1.2899    0.4240    0.0000 C.ar    1  LIG1        0.0442
      2 C           0.5754    0.8365    0.0000 C.ar    1  LIG1        0.0307
      3 N          -0.1391    0.4240    0.0000 N.ar    1  LIG1       -0.2863
      4 C          -0.9237    0.6789    0.0000 C.ar    1  LIG1        0.1242
      5 N          -1.4086    0.0115    0.0000 N.ar    1  LIG1       -0.1372
      6 N          -0.9237   -0.6560    0.0000 N.ar    1  LIG1       -0.1281
      7 C          -0.1391   -0.4010    0.0000 C.ar    1  LIG1        0.1791
      8 C           0.5754   -0.8135    0.0000 C.ar    1  LIG1        0.0721
      9 N           1.2899   -0.4010    0.0000 N.ar    1  LIG1       -0.2581
     10 H           2.2438    0.9748    0.0000 H       1  LIG1        0.0844
     11 H           0.5754    1.9380    0.0000 H       1  LIG1        0.0829
     12 H          -1.2641    1.7265    0.0000 H       1  LIG1        0.1051
     13 H           0.5754   -1.9150    0.0000 H       1  LIG1        0.0867
@<TRIPOS>BOND
     1     1     2   ar
     2     2     3   ar
     3     3     4   ar
     4     4     5   ar
     5     5     6   ar
     6     6     7   ar
     7     3     7   ar
     8     7     8   ar
     9     8     9   ar
    10     1     9   ar
    11     1    10    1
    12     2    11    1
    13     4    12    1
    14     8    13    1
