@<TRIPOS>MOLECULE
O=c1cc2[nH]cnc2n[nH]1
 14 15 0 0 0
SMALL
GASTEIGER
Energy = 0

@<TRIPOS>ATOM
      1 O           1.7434   -0.7438    0.0000 O.2     1  LIG1       -0.2664
      2 C           1.0289   -0.3313    0.0000 C.ar    1  LIG1        0.2668
      3 N           1.0289    0.4937    0.0000 N.ar    1  LIG1       -0.2411
      4 N           0.3145    0.9062    0.0000 N.ar    1  LIG1       -0.1492
      5 C          -0.4000    0.4937    0.0000 C.ar    1  LIG1        0.1976
      6 N          -1.1846    0.7487    0.0000 N.ar    1  LIG1       -0.2152
      7 C          -1.6695    0.0812    0.0000 C.ar    1  LIG1        0.0963
      8 N          -1.1846   -0.5862    0.0000 N.ar    1  LIG1       -0.3429
      9 C          -0.4000   -0.3313    0.0000 C.ar    1  LIG1        0.0919
     10 C           0.3145   -0.7438    0.0000 C.ar    1  LIG1        0.0312
     11 H           1.9664    1.0349    0.0000 H       1  LIG1        0.1922
     12 H          -2.7710    0.0812    0.0000 H       1  LIG1        0.1027
     13 H          -1.5191   -1.6157    0.0000 H       1  LIG1        0.1668
     14 H           0.3145   -1.8453    0.0000 H       1  LIG1        0.0694
@<TRIPOS>BOND
     1     1     2    2
     2     2     3   ar
     3     3     4   ar
     4     4     5   ar
     5     5     6   ar
     6     6     7   ar
     7     7     8   ar
     8     8     9   ar
     9     5     9   ar
    10     9    10   ar
    11     2    10   ar
    12     3    11    1
    13     7    12    1
    14     8    13    1
    15    10    14    1
