@<TRIPOS>MOLECULE
Cn1ccc2ocnc2c1=O
 17 18 0 0 0
SMALL
GASTEIGER
Energy = 0

@<TRIPOS>ATOM
      1 C          -1.7775   -0.5765    0.0000 C.3     1  LIG1        0.0148
      2 N          -1.0630   -0.1640    0.0000 N.ar    1  LIG1       -0.3163
      3 C          -1.0630    0.6610    0.0000 C.ar    1  LIG1        0.0112
      4 C          -0.3486    1.0735    0.0000 C.ar    1  LIG1       -0.0008
      5 C           0.3659    0.6610    0.0000 C.ar    1  LIG1        0.1617
      6 C           0.3659   -0.1640    0.0000 C.ar    1  LIG1        0.1734
      7 N           1.1505   -0.4190    0.0000 N.ar    1  LIG1       -0.2106
      8 C           1.6355    0.2485    0.0000 C.ar    1  LIG1        0.1833
      9 O           1.1505    0.9159    0.0000 O.2     1  LIG1       -0.4422
     10 C          -0.3486   -0.5765    0.0000 C.ar    1  LIG1        0.2803
     11 O          -0.3486   -1.4015    0.0000 O.2     1  LIG1       -0.2652
     12 H          -2.6443    0.1639    0.0000 H       1  LIG1        0.0457
     13 H          -1.8401   -1.2575    0.9121 H       1  LIG1        0.0457
     14 H          -1.8369   -1.2231   -0.9370 H       1  LIG1        0.0457
     15 H          -2.0169    1.2117    0.0000 H       1  LIG1        0.0811
     16 H          -0.3486    2.1750    0.0000 H       1  LIG1        0.0670
     17 H           2.7370    0.2485    0.0000 H       1  LIG1        0.1255
@<TRIPOS>BOND
     1     1     2    1
     2     2     3   ar
     3     3     4   ar
     4     4     5   ar
     5     5     6   ar
     6     6     7   ar
     7     7     8   ar
     8     8     9   ar
     9     5     9   ar
    10     6    10   ar
    11     2    10   ar
    12    10    11    2
    13     1    12    1
    14     1    13    1
    15     1    14    1
    16     3    15    1
    17     4    16    1
    18     8    17    1
