@<TRIPOS>MOLECULE
Cn1ccc2nc(=O)[nH]cc12
 18 19 0 0 0
SMALL
GASTEIGER
Energy = 0

@<TRIPOS>ATOM
      1 C           1.3345   -1.4186    0.0000 C.3     1  LIG1        0.0120
      2 N           1.0796   -0.6340    0.0000 N.ar    1  LIG1       -0.3473
      3 C           1.5645    0.0334    0.0000 C.ar    1  LIG1        0.0069
      4 C           1.0796    0.7009    0.0000 C.ar    1  LIG1       -0.0179
      5 C           0.2950    0.4459    0.0000 C.ar    1  LIG1        0.0955
      6 N          -0.4195    0.8584    0.0000 N.ar    1  LIG1       -0.1916
      7 C          -1.1340    0.4459    0.0000 C.ar    1  LIG1        0.3465
      8 O          -1.8485    0.8584    0.0000 O.2     1  LIG1       -0.2447
      9 N          -1.1340   -0.3791    0.0000 N.ar    1  LIG1       -0.3109
     10 C          -0.4195   -0.7916    0.0000 C.ar    1  LIG1        0.0320
     11 C           0.2950   -0.3791    0.0000 C.ar    1  LIG1        0.0837
     12 H           2.4741   -1.4485    0.0000 H       1  LIG1        0.0456
     13 H           0.9253   -1.9665   -0.9121 H       1  LIG1        0.0456
     14 H           0.9460   -1.9388    0.9370 H       1  LIG1        0.0456
     15 H           2.6660    0.0334    0.0000 H       1  LIG1        0.0810
     16 H           1.4200    1.7485    0.0000 H       1  LIG1        0.0654
     17 H          -2.0715   -0.9204    0.0000 H       1  LIG1        0.1699
     18 H          -0.4195   -1.8931    0.0000 H       1  LIG1        0.0830
@<TRIPOS>BOND
     1     1     2    1
     2     2     3   ar
     3     3     4   ar
     4     4     5   ar
     5     5     6   ar
     6     6     7   ar
     7     7     8    2
     8     7     9   ar
     9     9    10   ar
    10    10    11   ar
    11     2    11   ar
    12     5    11   ar
    13     1    12    1
    14     1    13    1
    15     1    14    1
    16     3    15    1
    17     4    16    1
    18     9    17    1
    19    10    18    1
