@<TRIPOS>MOLECULE
Cn1cnc2ncsc12
 14 15 0 0 0
SMALL
GASTEIGER
Energy = 0

@<TRIPOS>ATOM
      1 C           1.0521   -1.2322    0.0000 C.3     1  LIG1        0.0138
      2 N           0.7972   -0.4476    0.0000 N.ar    1  LIG1       -0.3264
      3 C           1.2821    0.2199    0.0000 C.ar    1  LIG1        0.0989
      4 N           0.7972    0.8873    0.0000 N.ar    1  LIG1       -0.2159
      5 C           0.0126    0.6324    0.0000 C.ar    1  LIG1        0.1854
      6 C           0.0126   -0.1926    0.0000 C.ar    1  LIG1        0.1272
      7 S          -0.7721   -0.4476    0.0000 S.2     1  LIG1       -0.0560
      8 C          -1.2570    0.2199    0.0000 C.ar    1  LIG1        0.0691
      9 N          -0.7721    0.8873    0.0000 N.ar    1  LIG1       -0.2268
     10 H           2.1917   -1.2621    0.0000 H       1  LIG1        0.0456
     11 H           0.6429   -1.7801   -0.9121 H       1  LIG1        0.0456
     12 H           0.6636   -1.7524    0.9370 H       1  LIG1        0.0456
     13 H           2.3836    0.2199    0.0000 H       1  LIG1        0.1030
     14 H          -2.3585    0.2199    0.0000 H       1  LIG1        0.0909
@<TRIPOS>BOND
     1     1     2    1
     2     2     3   ar
     3     3     4   ar
     4     4     5   ar
     5     5     6   ar
     6     2     6   ar
     7     6     7   ar
     8     7     8   ar
     9     8     9   ar
    10     5     9   ar
    11     1    10    1
    12     1    11    1
    13     1    12    1
    14     3    13    1
    15     8    14    1
