@<TRIPOS>MOLECULE
Cn1ccnc2ccc(=O)nc12
 19 20 0 0 0
SMALL
GASTEIGER
Energy = 0

@<TRIPOS>ATOM
      1 C           0.8721   -1.4251    0.0000 C.3     1  LIG1        0.0133
      2 N           0.8721   -0.6001    0.0000 N.ar    1  LIG1       -0.3322
      3 C           1.5865   -0.1876    0.0000 C.ar    1  LIG1        0.0243
      4 C           1.5865    0.6374    0.0000 C.ar    1  LIG1        0.0445
      5 N           0.8721    1.0499    0.0000 N.ar    1  LIG1       -0.2505
      6 C           0.1576    0.6374    0.0000 C.ar    1  LIG1        0.1065
      7 C          -0.5569    1.0499    0.0000 C.ar    1  LIG1       -0.0276
      8 C          -1.2713    0.6374    0.0000 C.ar    1  LIG1        0.0068
      9 C          -1.2713   -0.1876    0.0000 C.ar    1  LIG1        0.2722
     10 O          -1.9858   -0.6001    0.0000 O.2     1  LIG1       -0.2658
     11 N          -0.5569   -0.6001    0.0000 N.ar    1  LIG1       -0.1895
     12 C           0.1576   -0.1876    0.0000 C.ar    1  LIG1        0.1628
     13 H           1.9467   -1.8056    0.0000 H       1  LIG1        0.0456
     14 H           0.3136   -1.8198   -0.9121 H       1  LIG1        0.0456
     15 H           0.3419   -1.7998    0.9370 H       1  LIG1        0.0456
     16 H           2.5404   -0.7383    0.0000 H       1  LIG1        0.0825
     17 H           2.5404    1.1881    0.0000 H       1  LIG1        0.0844
     18 H          -0.5569    2.1514    0.0000 H       1  LIG1        0.0642
     19 H          -2.2252    1.1881    0.0000 H       1  LIG1        0.0673
@<TRIPOS>BOND
     1     1     2    1
     2     2     3   ar
     3     3     4   ar
     4     4     5   ar
     5     5     6   ar
     6     6     7   ar
     7     7     8   ar
     8     8     9   ar
     9     9    10    2
    10     9    11   ar
    11    11    12   ar
    12     2    12   ar
    13     6    12   ar
    14     1    13    1
    15     1    14    1
    16     1    15    1
    17     3    16    1
    18     4    17    1
    19     7    18    1
    20     8    19    1
