@<TRIPOS>MOLECULE
O=c1cnc2cn[nH]c(=O)c2[nH]1
 16 17 0 0 0
SMALL
GASTEIGER
Energy = 0

@<TRIPOS>ATOM
      1 O           2.0184    0.5776    0.0000 O.2     1  LIG1       -0.2662
      2 C           1.3039    0.1651    0.0000 C.ar    1  LIG1        0.2675
      3 N           0.5895    0.5776    0.0000 N.ar    1  LIG1       -0.3153
      4 C          -0.1250    0.1651    0.0000 C.ar    1  LIG1        0.1357
      5 C          -0.1250   -0.6599    0.0000 C.ar    1  LIG1        0.1124
      6 C          -0.8395   -1.0724    0.0000 C.ar    1  LIG1        0.0753
      7 N          -1.5539   -0.6599    0.0000 N.ar    1  LIG1       -0.1771
      8 N          -1.5539    0.1651    0.0000 N.ar    1  LIG1       -0.2414
      9 C          -0.8395    0.5776    0.0000 C.ar    1  LIG1        0.2903
     10 O          -0.8395    1.4026    0.0000 O.2     1  LIG1       -0.2641
     11 N           0.5895   -1.0724    0.0000 N.ar    1  LIG1       -0.2464
     12 C           1.3039   -0.6599    0.0000 C.ar    1  LIG1        0.0926
     13 H           0.5895    1.6601    0.0000 H       1  LIG1        0.1692
     14 H          -0.8395   -2.1739    0.0000 H       1  LIG1        0.0870
     15 H          -2.4914    0.7063    0.0000 H       1  LIG1        0.1922
     16 H           2.2578   -1.2106    0.0000 H       1  LIG1        0.0885
@<TRIPOS>BOND
     1     1     2    2
     2     2     3   ar
     3     3     4   ar
     4     4     5   ar
     5     5     6   ar
     6     6     7   ar
     7     7     8   ar
     8     8     9   ar
     9     4     9   ar
    10     9    10    2
    11     5    11   ar
    12    11    12   ar
    13     2    12   ar
    14     3    13    1
    15     6    14    1
    16     8    15    1
    17    12    16    1
