@<TRIPOS>MOLECULE
Cn1ncc2scnc2c1=O
 16 17 0 0 0
SMALL
GASTEIGER
Energy = 0

@<TRIPOS>ATOM
      1 C          -1.8784   -0.6754    0.0000 C.3     1  LIG1        0.0340
      2 N          -1.1639   -0.2629    0.0000 N.ar    1  LIG1       -0.2308
      3 N          -1.1639    0.5621    0.0000 N.ar    1  LIG1       -0.1757
      4 C          -0.4495    0.9746    0.0000 C.ar    1  LIG1        0.0640
      5 C           0.2650    0.5621    0.0000 C.ar    1  LIG1        0.0640
      6 C           0.2650   -0.2629    0.0000 C.ar    1  LIG1        0.1453
      7 N           1.0496   -0.5179    0.0000 N.ar    1  LIG1       -0.2419
      8 C           1.5345    0.1496    0.0000 C.ar    1  LIG1        0.0662
      9 S           1.0496    0.8170    0.0000 S.2     1  LIG1       -0.0737
     10 C          -0.4495   -0.6754    0.0000 C.ar    1  LIG1        0.2936
     11 O          -0.4495   -1.5004    0.0000 O.2     1  LIG1       -0.2639
     12 H          -2.7452    0.0650    0.0000 H       1  LIG1        0.0474
     13 H          -1.9410   -1.3564    0.9121 H       1  LIG1        0.0474
     14 H          -1.9378   -1.3220   -0.9370 H       1  LIG1        0.0474
     15 H          -0.4495    2.0761    0.0000 H       1  LIG1        0.0859
     16 H           2.6360    0.1496    0.0000 H       1  LIG1        0.0908
@<TRIPOS>BOND
     1     1     2    1
     2     2     3   ar
     3     3     4   ar
     4     4     5   ar
     5     5     6   ar
     6     6     7   ar
     7     7     8   ar
     8     8     9   ar
     9     5     9   ar
    10     6    10   ar
    11     2    10   ar
    12    10    11    2
    13     1    12    1
    14     1    13    1
    15     1    14    1
    16     4    15    1
    17     8    16    1
