@<TRIPOS>MOLECULE
O=c1ccnc2occn12
 14 15 0 0 0
SMALL
GASTEIGER
Energy = 0

@<TRIPOS>ATOM
      1 O           0.5091   -1.4765    0.0000 O.2     1  LIG1       -0.2672
      2 C           0.5091   -0.6515    0.0000 C.ar    1  LIG1        0.2606
      3 C           1.2236   -0.2390    0.0000 C.ar    1  LIG1        0.0216
      4 C           1.2236    0.5860    0.0000 C.ar    1  LIG1        0.0380
      5 N           0.5091    0.9985    0.0000 N.ar    1  LIG1       -0.2040
      6 C          -0.2053    0.5860    0.0000 C.ar    1  LIG1        0.3100
      7 O          -0.9900    0.8409    0.0000 O.2     1  LIG1       -0.4308
      8 C          -1.4749    0.1735    0.0000 C.ar    1  LIG1        0.1125
      9 C          -0.9900   -0.4940    0.0000 C.ar    1  LIG1        0.0524
     10 N          -0.2053   -0.2390    0.0000 N.ar    1  LIG1       -0.2345
     11 H           2.1775   -0.7898    0.0000 H       1  LIG1        0.0687
     12 H           2.1775    1.1368    0.0000 H       1  LIG1        0.0833
     13 H          -2.5764    0.1735    0.0000 H       1  LIG1        0.1046
     14 H          -1.3304   -1.5416    0.0000 H       1  LIG1        0.0846
@<TRIPOS>BOND
     1     1     2    2
     2     2     3   ar
     3     3     4   ar
     4     4     5   ar
     5     5     6   ar
     6     6     7   ar
     7     7     8   ar
     8     8     9   ar
     9     9    10   ar
    10     2    10   ar
    11     6    10   ar
    12     3    11    1
    13     4    12    1
    14     8    13    1
    15     9    14    1
