@<TRIPOS>MOLECULE
O=c1ccn2cc[nH]c2n1
 15 16 0 0 0
SMALL
GASTEIGER
Energy = 0

@<TRIPOS>ATOM
      1 O           1.7472   -0.7070    0.0000 O.2     1  LIG1       -0.2657
      2 C           1.0327   -0.2945    0.0000 C.ar    1  LIG1        0.2746
      3 C           1.0327    0.5305    0.0000 C.ar    1  LIG1        0.0213
      4 C           0.3182    0.9430    0.0000 C.ar    1  LIG1        0.0177
      5 N          -0.3962    0.5305    0.0000 N.ar    1  LIG1       -0.2923
      6 C          -1.1809    0.7855    0.0000 C.ar    1  LIG1        0.0285
      7 C          -1.6658    0.1180    0.0000 C.ar    1  LIG1        0.0214
      8 N          -1.1809   -0.5494    0.0000 N.ar    1  LIG1       -0.3303
      9 C          -0.3962   -0.2945    0.0000 C.ar    1  LIG1        0.2157
     10 N           0.3182   -0.7070    0.0000 N.ar    1  LIG1       -0.1745
     11 H           1.9866    1.0813    0.0000 H       1  LIG1        0.0687
     12 H           0.3182    2.0445    0.0000 H       1  LIG1        0.0815
     13 H          -1.5213    1.8331    0.0000 H       1  LIG1        0.0828
     14 H          -2.7673    0.1180    0.0000 H       1  LIG1        0.0823
     15 H          -1.5154   -1.5789    0.0000 H       1  LIG1        0.1682
@<TRIPOS>BOND
     1     1     2    2
     2     2     3   ar
     3     3     4   ar
     4     4     5   ar
     5     5     6   ar
     6     6     7   ar
     7     7     8   ar
     8     8     9   ar
     9     5     9   ar
    10     9    10   ar
    11     2    10   ar
    12     3    11    1
    13     4    12    1
    14     6    13    1
    15     7    14    1
    16     8    15    1
