@<TRIPOS>MOLECULE
Cn1ccc(=O)c2ccnnc12
 19 20 0 0 0
SMALL
GASTEIGER
Energy = 0

@<TRIPOS>ATOM
      1 C           0.6031   -1.6660    0.0000 C.3     1  LIG1        0.0133
      2 N           0.6031   -0.8410    0.0000 N.ar    1  LIG1       -0.3333
      3 C           1.3176   -0.4285    0.0000 C.ar    1  LIG1        0.0098
      4 C           1.3176    0.3965    0.0000 C.ar    1  LIG1        0.0020
      5 C           0.6031    0.8090    0.0000 C.ar    1  LIG1        0.1910
      6 O           0.6031    1.6340    0.0000 O.2     1  LIG1       -0.2871
      7 C          -0.1114    0.3965    0.0000 C.ar    1  LIG1        0.0673
      8 C          -0.8258    0.8090    0.0000 C.ar    1  LIG1       -0.0275
      9 C          -1.5403    0.3965    0.0000 C.ar    1  LIG1        0.0508
     10 N          -1.5403   -0.4285    0.0000 N.ar    1  LIG1       -0.1557
     11 N          -0.8258   -0.8410    0.0000 N.ar    1  LIG1       -0.1308
     12 C          -0.1114   -0.4285    0.0000 C.ar    1  LIG1        0.1663
     13 H           1.6777   -2.0465    0.0000 H       1  LIG1        0.0456
     14 H           0.0446   -2.0607   -0.9121 H       1  LIG1        0.0456
     15 H           0.0729   -2.0407    0.9370 H       1  LIG1        0.0456
     16 H           2.2715   -0.9793    0.0000 H       1  LIG1        0.0810
     17 H           2.2715    0.9473    0.0000 H       1  LIG1        0.0670
     18 H          -0.8258    1.9105    0.0000 H       1  LIG1        0.0641
     19 H          -2.4942    0.9473    0.0000 H       1  LIG1        0.0848
@<TRIPOS>BOND
     1     1     2    1
     2     2     3   ar
     3     3     4   ar
     4     4     5   ar
     5     5     6    2
     6     5     7   ar
     7     7     8   ar
     8     8     9   ar
     9     9    10   ar
    10    10    11   ar
    11    11    12   ar
    12     2    12   ar
    13     7    12   ar
    14     1    13    1
    15     1    14    1
    16     1    15    1
    17     3    16    1
    18     4    17    1
    19     8    18    1
    20     9    19    1
