@<TRIPOS>MOLECULE
O=c1nccc2ncncn12
 15 16 0 0 0
SMALL
GASTEIGER
Energy = 0

@<TRIPOS>ATOM
      1 O           0.6450   -1.4611    0.0000 O.2     1  LIG1       -0.2440
      2 C           0.6450   -0.6361    0.0000 C.ar    1  LIG1        0.3552
      3 N           1.3595   -0.2236    0.0000 N.ar    1  LIG1       -0.2009
      4 C           1.3595    0.6014    0.0000 C.ar    1  LIG1        0.0365
      5 C           0.6450    1.0139    0.0000 C.ar    1  LIG1       -0.0004
      6 C          -0.0694    0.6014    0.0000 C.ar    1  LIG1        0.1457
      7 N          -0.7839    1.0139    0.0000 N.ar    1  LIG1       -0.2178
      8 C          -1.4984    0.6014    0.0000 C.ar    1  LIG1        0.1199
      9 N          -1.4984   -0.2236    0.0000 N.ar    1  LIG1       -0.2254
     10 C          -0.7839   -0.6361    0.0000 C.ar    1  LIG1        0.1077
     11 N          -0.0694   -0.2236    0.0000 N.ar    1  LIG1       -0.2348
     12 H           2.3134    1.1522    0.0000 H       1  LIG1        0.0832
     13 H           0.6450    2.1154    0.0000 H       1  LIG1        0.0669
     14 H          -2.4523    1.1522    0.0000 H       1  LIG1        0.1048
     15 H          -0.7839   -1.7376    0.0000 H       1  LIG1        0.1034
@<TRIPOS>BOND
     1     1     2    2
     2     2     3   ar
     3     3     4   ar
     4     4     5   ar
     5     5     6   ar
     6     6     7   ar
     7     7     8   ar
     8     8     9   ar
     9     9    10   ar
    10    10    11   ar
    11     2    11   ar
    12     6    11   ar
    13     4    12    1
    14     5    13    1
    15     8    14    1
    16    10    15    1
