@<TRIPOS>MOLECULE
O=c1ncnc2ocnn12
 12 13 0 0 0
SMALL
GASTEIGER
Energy = 0

@<TRIPOS>ATOM
      1 O           0.5057   -1.4658    0.0000 O.2     1  LIG1       -0.2424
      2 C           0.5057   -0.6408    0.0000 C.ar    1  LIG1        0.3744
      3 N           1.2202   -0.2283    0.0000 N.ar    1  LIG1       -0.1798
      4 C           1.2202    0.5967    0.0000 C.ar    1  LIG1        0.1268
      5 N           0.5057    1.0092    0.0000 N.ar    1  LIG1       -0.1828
      6 C          -0.2088    0.5967    0.0000 C.ar    1  LIG1        0.3312
      7 O          -0.9934    0.8517    0.0000 O.2     1  LIG1       -0.4100
      8 C          -1.4783    0.1842    0.0000 C.ar    1  LIG1        0.2048
      9 N          -0.9934   -0.4832    0.0000 N.ar    1  LIG1       -0.1281
     10 N          -0.2088   -0.2283    0.0000 N.ar    1  LIG1       -0.1264
     11 H           2.1741    1.1475    0.0000 H       1  LIG1        0.1050
     12 H          -2.5798    0.1842    0.0000 H       1  LIG1        0.1272
@<TRIPOS>BOND
     1     1     2    2
     2     2     3   ar
     3     3     4   ar
     4     4     5   ar
     5     5     6   ar
     6     6     7   ar
     7     7     8   ar
     8     8     9   ar
     9     9    10   ar
    10     2    10   ar
    11     6    10   ar
    12     4    11    1
    13     8    12    1
