@<TRIPOS>MOLECULE
O=c1ncc2nc[nH]c2[nH]1
 14 15 0 0 0
SMALL
GASTEIGER
Energy = 0

@<TRIPOS>ATOM
      1 O          -1.7434    0.7188    0.0000 O.2     1  LIG1       -0.2447
      2 C          -1.0289    0.3063    0.0000 C.ar    1  LIG1        0.3474
      3 N          -0.3145    0.7188    0.0000 N.ar    1  LIG1       -0.2908
      4 C           0.4000    0.3063    0.0000 C.ar    1  LIG1        0.1411
      5 C           0.4000   -0.5187    0.0000 C.ar    1  LIG1        0.1240
      6 C          -0.3145   -0.9312    0.0000 C.ar    1  LIG1        0.0619
      7 N          -1.0289   -0.5187    0.0000 N.ar    1  LIG1       -0.1993
      8 N           1.1846   -0.7736    0.0000 N.ar    1  LIG1       -0.2328
      9 C           1.6695   -0.1062    0.0000 C.ar    1  LIG1        0.0956
     10 N           1.1846    0.5613    0.0000 N.ar    1  LIG1       -0.3306
     11 H          -0.3145    1.8013    0.0000 H       1  LIG1        0.1719
     12 H          -0.3145   -2.0327    0.0000 H       1  LIG1        0.0854
     13 H           2.7710   -0.1062    0.0000 H       1  LIG1        0.1027
     14 H           1.5191    1.5908    0.0000 H       1  LIG1        0.1682
@<TRIPOS>BOND
     1     1     2    2
     2     2     3   ar
     3     3     4   ar
     4     4     5   ar
     5     5     6   ar
     6     6     7   ar
     7     2     7   ar
     8     5     8   ar
     9     8     9   ar
    10     9    10   ar
    11     4    10   ar
    12     3    11    1
    13     6    12    1
    14     9    13    1
    15    10    14    1
