@<TRIPOS>MOLECULE
Cn1c(=O)ncc2occc12
 17 18 0 0 0
SMALL
GASTEIGER
Energy = 0

@<TRIPOS>ATOM
      1 C          -0.2882   -1.4336    0.0000 C.3     1  LIG1        0.0168
      2 N          -0.2882   -0.6086    0.0000 N.ar    1  LIG1       -0.2921
      3 C          -1.0027   -0.1961    0.0000 C.ar    1  LIG1        0.3488
      4 O          -1.7172   -0.6086    0.0000 O.2     1  LIG1       -0.2445
      5 N          -1.0027    0.6289    0.0000 N.ar    1  LIG1       -0.1976
      6 C          -0.2882    1.0414    0.0000 C.ar    1  LIG1        0.0773
      7 C           0.4262    0.6289    0.0000 C.ar    1  LIG1        0.1693
      8 C           0.4262   -0.1961    0.0000 C.ar    1  LIG1        0.0927
      9 C           1.2109   -0.4511    0.0000 C.ar    1  LIG1        0.0005
     10 C           1.6958    0.2164    0.0000 C.ar    1  LIG1        0.0947
     11 O           1.2109    0.8838    0.0000 O.2     1  LIG1       -0.4599
     12 H          -1.3628   -1.8141    0.0000 H       1  LIG1        0.0457
     13 H           0.2703   -1.8283    0.9121 H       1  LIG1        0.0457
     14 H           0.2420   -1.8083   -0.9370 H       1  LIG1        0.0457
     15 H          -0.2882    2.1429    0.0000 H       1  LIG1        0.0869
     16 H           1.5513   -1.4987    0.0000 H       1  LIG1        0.0670
     17 H           2.7973    0.2164    0.0000 H       1  LIG1        0.1030
@<TRIPOS>BOND
     1     1     2    1
     2     2     3   ar
     3     3     4    2
     4     3     5   ar
     5     5     6   ar
     6     6     7   ar
     7     7     8   ar
     8     2     8   ar
     9     8     9   ar
    10     9    10   ar
    11    10    11   ar
    12     7    11   ar
    13     1    12    1
    14     1    13    1
    15     1    14    1
    16     6    15    1
    17     9    16    1
    18    10    17    1
