@<TRIPOS>MOLECULE
O=c1cnn2cn[nH]c2n1
 13 14 0 0 0
SMALL
GASTEIGER
Energy = 0

@<TRIPOS>ATOM
      1 O           1.7672   -0.7228    0.0000 O.2     1  LIG1       -0.2641
      2 C           1.0528   -0.3103    0.0000 C.ar    1  LIG1        0.2932
      3 C           1.0528    0.5147    0.0000 C.ar    1  LIG1        0.1147
      4 N           0.3383    0.9272    0.0000 N.ar    1  LIG1       -0.1654
      5 N          -0.3762    0.5147    0.0000 N.ar    1  LIG1       -0.1856
      6 C          -1.1608    0.7697    0.0000 C.ar    1  LIG1        0.1413
      7 N          -1.6457    0.1022    0.0000 N.ar    1  LIG1       -0.1594
      8 N          -1.1608   -0.5652    0.0000 N.ar    1  LIG1       -0.2432
      9 C          -0.3762   -0.3103    0.0000 C.ar    1  LIG1        0.2503
     10 N           0.3383   -0.7228    0.0000 N.ar    1  LIG1       -0.1708
     11 H           2.0067    1.0655    0.0000 H       1  LIG1        0.0904
     12 H          -1.5012    1.8173    0.0000 H       1  LIG1        0.1067
     13 H          -1.4953   -1.5947    0.0000 H       1  LIG1        0.1921
@<TRIPOS>BOND
     1     1     2    2
     2     2     3   ar
     3     3     4   ar
     4     4     5   ar
     5     5     6   ar
     6     6     7   ar
     7     7     8   ar
     8     8     9   ar
     9     5     9   ar
    10     9    10   ar
    11     2    10   ar
    12     3    11    1
    13     6    12    1
    14     8    13    1
