@<TRIPOS>MOLECULE
c1cc2nncnc2cn1
 14 15 0 0 0
SMALL
GASTEIGER
Energy = 0

@<TRIPOS>ATOM
      1 C           1.4512    0.4125    0.0000 C.ar    1  LIG1        0.0298
      2 C           0.7367    0.8250    0.0000 C.ar    1  LIG1       -0.0143
      3 C           0.0223    0.4125    0.0000 C.ar    1  LIG1        0.1144
      4 N          -0.6922    0.8250    0.0000 N.ar    1  LIG1       -0.1462
      5 N          -1.4067    0.4125    0.0000 N.ar    1  LIG1       -0.1372
      6 C          -1.4067   -0.4125    0.0000 C.ar    1  LIG1        0.1390
      7 N          -0.6922   -0.8250    0.0000 N.ar    1  LIG1       -0.2305
      8 C           0.0223   -0.4125    0.0000 C.ar    1  LIG1        0.1107
      9 C           0.7367   -0.8250    0.0000 C.ar    1  LIG1        0.0551
     10 N           1.4512   -0.4125    0.0000 N.ar    1  LIG1       -0.2610
     11 H           2.4051    0.9633    0.0000 H       1  LIG1        0.0830
     12 H           0.7367    1.9265    0.0000 H       1  LIG1        0.0655
     13 H          -2.3606   -0.9633    0.0000 H       1  LIG1        0.1066
     14 H           0.7367   -1.9265    0.0000 H       1  LIG1        0.0852
@<TRIPOS>BOND
     1     1     2   ar
     2     2     3   ar
     3     3     4   ar
     4     4     5   ar
     5     5     6   ar
     6     6     7   ar
     7     7     8   ar
     8     3     8   ar
     9     8     9   ar
    10     9    10   ar
    11     1    10   ar
    12     1    11    1
    13     2    12    1
    14     6    13    1
    15     9    14    1
