@<TRIPOS>MOLECULE
Cn1ccc2[nH]c(=O)[nH]c2c1=O
 19 20 0 0 0
SMALL
GASTEIGER
Energy = 0

@<TRIPOS>ATOM
      1 C          -2.0120   -0.5901    0.0000 C.3     1  LIG1        0.0148
      2 N          -1.2975   -0.1776    0.0000 N.ar    1  LIG1       -0.3165
      3 C          -1.2975    0.6474    0.0000 C.ar    1  LIG1        0.0097
      4 C          -0.5831    1.0599    0.0000 C.ar    1  LIG1       -0.0198
      5 C           0.1314    0.6474    0.0000 C.ar    1  LIG1        0.0735
      6 C           0.1314   -0.1776    0.0000 C.ar    1  LIG1        0.1321
      7 N           0.9160   -0.4326    0.0000 N.ar    1  LIG1       -0.3018
      8 C           1.4010    0.2349    0.0000 C.ar    1  LIG1        0.3251
      9 O           2.2260    0.2349    0.0000 O.2     1  LIG1       -0.2468
     10 N           0.9160    0.9023    0.0000 N.ar    1  LIG1       -0.3059
     11 C          -0.5831   -0.5901    0.0000 C.ar    1  LIG1        0.2766
     12 O          -0.5831   -1.4151    0.0000 O.2     1  LIG1       -0.2654
     13 H          -2.8788    0.1503    0.0000 H       1  LIG1        0.0457
     14 H          -2.0746   -1.2711    0.9121 H       1  LIG1        0.0457
     15 H          -2.0714   -1.2367   -0.9370 H       1  LIG1        0.0457
     16 H          -2.2514    1.1981    0.0000 H       1  LIG1        0.0810
     17 H          -0.5831    2.1614    0.0000 H       1  LIG1        0.0653
     18 H           1.2505   -1.4621    0.0000 H       1  LIG1        0.1706
     19 H           1.2505    1.9318    0.0000 H       1  LIG1        0.1704
@<TRIPOS>BOND
     1     1     2    1
     2     2     3   ar
     3     3     4   ar
     4     4     5   ar
     5     5     6   ar
     6     6     7   ar
     7     7     8   ar
     8     8     9    2
     9     8    10   ar
    10     5    10   ar
    11     6    11   ar
    12     2    11   ar
    13    11    12    2
    14     1    13    1
    15     1    14    1
    16     1    15    1
    17     3    16    1
    18     4    17    1
    19     7    18    1
    20    10    19    1
