@<TRIPOS>MOLECULE
O=c1cnn2ccnc2[nH]1
 14 15 0 0 0
SMALL
GASTEIGER
Energy = 0

@<TRIPOS>ATOM
      1 O           1.7424    0.7212    0.0000 O.2     1  LIG1       -0.2661
      2 C           1.0279    0.3087    0.0000 C.ar    1  LIG1        0.2712
      3 N           0.3134    0.7212    0.0000 N.ar    1  LIG1       -0.2902
      4 C          -0.4011    0.3087    0.0000 C.ar    1  LIG1        0.2319
      5 N          -1.1857    0.5637    0.0000 N.ar    1  LIG1       -0.2191
      6 C          -1.6706   -0.1038    0.0000 C.ar    1  LIG1        0.0496
      7 C          -1.1857   -0.7712    0.0000 C.ar    1  LIG1        0.0510
      8 N          -0.4011   -0.5163    0.0000 N.ar    1  LIG1       -0.2055
      9 N           0.3134   -0.9288    0.0000 N.ar    1  LIG1       -0.1669
     10 C           1.0279   -0.5163    0.0000 C.ar    1  LIG1        0.1127
     11 H           0.3134    1.8037    0.0000 H       1  LIG1        0.1719
     12 H          -2.7721   -0.1038    0.0000 H       1  LIG1        0.0846
     13 H          -1.5261   -1.8188    0.0000 H       1  LIG1        0.0847
     14 H           1.9818   -1.0671    0.0000 H       1  LIG1        0.0903
@<TRIPOS>BOND
     1     1     2    2
     2     2     3   ar
     3     3     4   ar
     4     4     5   ar
     5     5     6   ar
     6     6     7   ar
     7     7     8   ar
     8     4     8   ar
     9     8     9   ar
    10     9    10   ar
    11     2    10   ar
    12     3    11    1
    13     6    12    1
    14     7    13    1
    15    10    14    1
