@<TRIPOS>MOLECULE
O=c1ccn2cn[nH]c2n1
 14 15 0 0 0
SMALL
GASTEIGER
Energy = 0

@<TRIPOS>ATOM
      1 O           1.7723   -0.7087    0.0000 O.2     1  LIG1       -0.2657
      2 C           1.0579   -0.2962    0.0000 C.ar    1  LIG1        0.2747
      3 C           1.0579    0.5288    0.0000 C.ar    1  LIG1        0.0214
      4 C           0.3434    0.9413    0.0000 C.ar    1  LIG1        0.0192
      5 N          -0.3711    0.5288    0.0000 N.ar    1  LIG1       -0.2747
      6 C          -1.1557    0.7837    0.0000 C.ar    1  LIG1        0.1230
      7 N          -1.6406    0.1163    0.0000 N.ar    1  LIG1       -0.1609
      8 N          -1.1557   -0.5512    0.0000 N.ar    1  LIG1       -0.2444
      9 C          -0.3711   -0.2962    0.0000 C.ar    1  LIG1        0.2334
     10 N           0.3434   -0.7087    0.0000 N.ar    1  LIG1       -0.1733
     11 H           2.0118    1.0796    0.0000 H       1  LIG1        0.0687
     12 H           0.3434    2.0428    0.0000 H       1  LIG1        0.0816
     13 H          -1.4961    1.8313    0.0000 H       1  LIG1        0.1051
     14 H          -1.4902   -1.5807    0.0000 H       1  LIG1        0.1920
@<TRIPOS>BOND
     1     1     2    2
     2     2     3   ar
     3     3     4   ar
     4     4     5   ar
     5     5     6   ar
     6     6     7   ar
     7     7     8   ar
     8     8     9   ar
     9     5     9   ar
    10     9    10   ar
    11     2    10   ar
    12     3    11    1
    13     4    12    1
    14     6    13    1
    15     8    14    1
