@<TRIPOS>MOLECULE
O=c1[nH]c2ccncc2o1
 14 15 0 0 0
SMALL
GASTEIGER
Energy = 0

@<TRIPOS>ATOM
      1 O           1.9585    0.0163    0.0000 O.2     1  LIG1       -0.2229
      2 C           1.1335    0.0163    0.0000 C.ar    1  LIG1        0.4187
      3 N           0.6486    0.6837    0.0000 N.ar    1  LIG1       -0.2879
      4 C          -0.1360    0.4288    0.0000 C.ar    1  LIG1        0.0902
      5 C          -0.8505    0.8413    0.0000 C.ar    1  LIG1       -0.0165
      6 C          -1.5649    0.4288    0.0000 C.ar    1  LIG1        0.0297
      7 N          -1.5649   -0.3962    0.0000 N.ar    1  LIG1       -0.2595
      8 C          -0.8505   -0.8087    0.0000 C.ar    1  LIG1        0.0720
      9 C          -0.1360   -0.3962    0.0000 C.ar    1  LIG1        0.1747
     10 O           0.6486   -0.6511    0.0000 O.2     1  LIG1       -0.4060
     11 H           0.9831    1.7132    0.0000 H       1  LIG1        0.1721
     12 H          -0.8505    1.9428    0.0000 H       1  LIG1        0.0654
     13 H          -2.5188    0.9795    0.0000 H       1  LIG1        0.0830
     14 H          -0.8505   -1.9102    0.0000 H       1  LIG1        0.0868
@<TRIPOS>BOND
     1     1     2    2
     2     2     3   ar
     3     3     4   ar
     4     4     5   ar
     5     5     6   ar
     6     6     7   ar
     7     7     8   ar
     8     8     9   ar
     9     4     9   ar
    10     9    10   ar
    11     2    10   ar
    12     3    11    1
    13     5    12    1
    14     6    13    1
    15     8    14    1
