@<TRIPOS>MOLECULE
Cn1[nH]c(=O)c2ncncc12
 17 18 0 0 0
SMALL
GASTEIGER
Energy = 0

@<TRIPOS>ATOM
      1 C           0.9594   -1.4887    0.0000 C.3     1  LIG1        0.0290
      2 N           0.7045   -0.7041    0.0000 N.ar    1  LIG1       -0.2833
      3 N           1.1894   -0.0367    0.0000 N.ar    1  LIG1       -0.2615
      4 C           0.7045    0.6308    0.0000 C.ar    1  LIG1        0.2908
      5 O           0.9594    1.4154    0.0000 O.2     1  LIG1       -0.2641
      6 C          -0.0801    0.3758    0.0000 C.ar    1  LIG1        0.1572
      7 N          -0.7946    0.7883    0.0000 N.ar    1  LIG1       -0.2284
      8 C          -1.5091    0.3758    0.0000 C.ar    1  LIG1        0.1169
      9 N          -1.5091   -0.4492    0.0000 N.ar    1  LIG1       -0.2416
     10 C          -0.7946   -0.8617    0.0000 C.ar    1  LIG1        0.0565
     11 C          -0.0801   -0.4492    0.0000 C.ar    1  LIG1        0.1067
     12 H           2.0990   -1.5186    0.0000 H       1  LIG1        0.0472
     13 H           0.5502   -2.0366   -0.9121 H       1  LIG1        0.0472
     14 H           0.5709   -2.0089    0.9370 H       1  LIG1        0.0472
     15 H           2.2719   -0.0367    0.0000 H       1  LIG1        0.1902
     16 H          -2.4630    0.9266    0.0000 H       1  LIG1        0.1047
     17 H          -0.7946   -1.9632    0.0000 H       1  LIG1        0.0852
@<TRIPOS>BOND
     1     1     2    1
     2     2     3   ar
     3     3     4   ar
     4     4     5    2
     5     4     6   ar
     6     6     7   ar
     7     7     8   ar
     8     8     9   ar
     9     9    10   ar
    10    10    11   ar
    11     2    11   ar
    12     6    11   ar
    13     1    12    1
    14     1    13    1
    15     1    14    1
    16     3    15    1
    17     8    16    1
    18    10    17    1
