@<TRIPOS>MOLECULE
Cn1ccc2c[nH]nc2c1=O
 18 19 0 0 0
SMALL
GASTEIGER
Energy = 0

@<TRIPOS>ATOM
      1 C           1.7682   -0.5543    0.0000 C.3     1  LIG1        0.0148
      2 N           1.0537   -0.1418    0.0000 N.ar    1  LIG1       -0.3164
      3 C           1.0537    0.6832    0.0000 C.ar    1  LIG1        0.0083
      4 C           0.3392    1.0957    0.0000 C.ar    1  LIG1       -0.0346
      5 C          -0.3752    0.6832    0.0000 C.ar    1  LIG1        0.0262
      6 C          -1.1599    0.9381    0.0000 C.ar    1  LIG1        0.0303
      7 N          -1.6448    0.2707    0.0000 N.ar    1  LIG1       -0.2834
      8 N          -1.1599   -0.3967    0.0000 N.ar    1  LIG1       -0.1684
      9 C          -0.3752   -0.1418    0.0000 C.ar    1  LIG1        0.1567
     10 C           0.3392   -0.5543    0.0000 C.ar    1  LIG1        0.2789
     11 O           0.3392   -1.3793    0.0000 O.2     1  LIG1       -0.2653
     12 H           2.6350    0.1861    0.0000 H       1  LIG1        0.0457
     13 H           1.8308   -1.2353   -0.9121 H       1  LIG1        0.0457
     14 H           1.8276   -1.2009    0.9370 H       1  LIG1        0.0457
     15 H           2.0076    1.2340    0.0000 H       1  LIG1        0.0810
     16 H           0.3392    2.1972    0.0000 H       1  LIG1        0.0639
     17 H          -1.5003    1.9857    0.0000 H       1  LIG1        0.0830
     18 H          -2.7273    0.2707    0.0000 H       1  LIG1        0.1882
@<TRIPOS>BOND
     1     1     2    1
     2     2     3   ar
     3     3     4   ar
     4     4     5   ar
     5     5     6   ar
     6     6     7   ar
     7     7     8   ar
     8     8     9   ar
     9     5     9   ar
    10     9    10   ar
    11     2    10   ar
    12    10    11    2
    13     1    12    1
    14     1    13    1
    15     1    14    1
    16     3    15    1
    17     4    16    1
    18     6    17    1
    19     7    18    1
