@<TRIPOS>MOLECULE
Cn1ccc2ccoc2c1=O
 18 19 0 0 0
SMALL
GASTEIGER
Energy = 0

@<TRIPOS>ATOM
      1 C          -1.7613   -0.5449    0.0000 C.3     1  LIG1        0.0148
      2 N          -1.0469   -0.1324    0.0000 N.ar    1  LIG1       -0.3152
      3 C          -1.0469    0.6926    0.0000 C.ar    1  LIG1        0.0084
      4 C          -0.3324    1.1051    0.0000 C.ar    1  LIG1       -0.0345
      5 C           0.3821    0.6926    0.0000 C.ar    1  LIG1        0.0269
      6 C           0.3821   -0.1324    0.0000 C.ar    1  LIG1        0.1989
      7 O           1.1667   -0.3874    0.0000 O.2     1  LIG1       -0.4575
      8 C           1.6516    0.2801    0.0000 C.ar    1  LIG1        0.0934
      9 C           1.1667    0.9475    0.0000 C.ar    1  LIG1       -0.0159
     10 C          -0.3324   -0.5449    0.0000 C.ar    1  LIG1        0.2941
     11 O          -0.3324   -1.3699    0.0000 O.2     1  LIG1       -0.2637
     12 H          -2.6282    0.1954    0.0000 H       1  LIG1        0.0457
     13 H          -1.8238   -1.2259    0.9121 H       1  LIG1        0.0457
     14 H          -1.8207   -1.1915   -0.9370 H       1  LIG1        0.0457
     15 H          -2.0008    1.2434    0.0000 H       1  LIG1        0.0810
     16 H          -0.3324    2.2066    0.0000 H       1  LIG1        0.0639
     17 H           2.7531    0.2801    0.0000 H       1  LIG1        0.1030
     18 H           1.5071    1.9951    0.0000 H       1  LIG1        0.0655
@<TRIPOS>BOND
     1     1     2    1
     2     2     3   ar
     3     3     4   ar
     4     4     5   ar
     5     5     6   ar
     6     6     7   ar
     7     7     8   ar
     8     8     9   ar
     9     5     9   ar
    10     6    10   ar
    11     2    10   ar
    12    10    11    2
    13     1    12    1
    14     1    13    1
    15     1    14    1
    16     3    15    1
    17     4    16    1
    18     8    17    1
    19     9    18    1
