@<TRIPOS>MOLECULE
O=c1ccn2ccccc2c1
 18 19 0 0 0
SMALL
GASTEIGER
Energy = 0

@<TRIPOS>ATOM
      1 O           1.8951   -0.7354    0.0000 O.2     1  LIG1       -0.2878
      2 C           1.1806   -0.3229    0.0000 C.ar    1  LIG1        0.1823
      3 C           1.1806    0.5021    0.0000 C.ar    1  LIG1        0.0016
      4 C           0.4662    0.9146    0.0000 C.ar    1  LIG1        0.0134
      5 N          -0.2483    0.5021    0.0000 N.ar    1  LIG1       -0.3228
      6 C          -0.9628    0.9146    0.0000 C.ar    1  LIG1        0.0098
      7 C          -1.6773    0.5021    0.0000 C.ar    1  LIG1       -0.0452
      8 C          -1.6773   -0.3229    0.0000 C.ar    1  LIG1       -0.0584
      9 C          -0.9628   -0.7354    0.0000 C.ar    1  LIG1       -0.0377
     10 C          -0.2483   -0.3229    0.0000 C.ar    1  LIG1        0.0496
     11 C           0.4662   -0.7354    0.0000 C.ar    1  LIG1        0.0089
     12 H           2.1345    1.0528    0.0000 H       1  LIG1        0.0670
     13 H           0.4662    2.0161    0.0000 H       1  LIG1        0.0814
     14 H          -0.9628    2.0161    0.0000 H       1  LIG1        0.0813
     15 H          -2.6312    1.0529    0.0000 H       1  LIG1        0.0632
     16 H          -2.6312   -0.8737    0.0000 H       1  LIG1        0.0619
     17 H          -0.9628   -1.8369    0.0000 H       1  LIG1        0.0638
     18 H           0.4662   -1.8369    0.0000 H       1  LIG1        0.0676
@<TRIPOS>BOND
     1     1     2    2
     2     2     3   ar
     3     3     4   ar
     4     4     5   ar
     5     5     6   ar
     6     6     7   ar
     7     7     8   ar
     8     8     9   ar
     9     9    10   ar
    10     5    10   ar
    11    10    11   ar
    12     2    11   ar
    13     3    12    1
    14     4    13    1
    15     6    14    1
    16     7    15    1
    17     8    16    1
    18     9    17    1
    19    11    18    1
