@<TRIPOS>MOLECULE
c1cc2nnsc2cn1
 12 13 0 0 0
SMALL
GASTEIGER
Energy = 0

@<TRIPOS>ATOM
      1 S           0.7877   -0.5714    0.0000 S.2     1  LIG1        0.0381
      2 N           1.2726    0.0960    0.0000 N.ar    1  LIG1       -0.1094
      3 N           0.7877    0.7634    0.0000 N.ar    1  LIG1       -0.1411
      4 C           0.0030    0.5085    0.0000 C.ar    1  LIG1        0.1048
      5 C           0.0030   -0.3165    0.0000 C.ar    1  LIG1        0.0775
      6 C          -0.7114   -0.7290    0.0000 C.ar    1  LIG1        0.0449
      7 N          -1.4259   -0.3165    0.0000 N.ar    1  LIG1       -0.2620
      8 C          -1.4259    0.5085    0.0000 C.ar    1  LIG1        0.0297
      9 C          -0.7114    0.9210    0.0000 C.ar    1  LIG1       -0.0152
     10 H          -0.7114   -1.8305    0.0000 H       1  LIG1        0.0842
     11 H          -2.3798    1.0593    0.0000 H       1  LIG1        0.0830
     12 H          -0.7114    2.0225    0.0000 H       1  LIG1        0.0655
@<TRIPOS>BOND
     1     1     2   ar
     2     2     3   ar
     3     3     4   ar
     4     4     5   ar
     5     1     5   ar
     6     5     6   ar
     7     6     7   ar
     8     7     8   ar
     9     8     9   ar
    10     4     9   ar
    11     6    10    1
    12     8    11    1
    13     9    12    1
