@<TRIPOS>MOLECULE
O=c1[nH]cnc2conc12
 13 14 0 0 0
SMALL
GASTEIGER
Energy = 0

@<TRIPOS>ATOM
      1 O           0.5170   -1.4493    0.0000 O.2     1  LIG1       -0.2654
      2 C           0.5170   -0.6243    0.0000 C.ar    1  LIG1        0.2807
      3 N           1.2315   -0.2118    0.0000 N.ar    1  LIG1       -0.3116
      4 C           1.2315    0.6132    0.0000 C.ar    1  LIG1        0.0968
      5 N           0.5170    1.0257    0.0000 N.ar    1  LIG1       -0.2323
      6 C          -0.1974    0.6132    0.0000 C.ar    1  LIG1        0.1366
      7 C          -0.9821    0.8681    0.0000 C.ar    1  LIG1        0.1503
      8 O          -1.4670    0.2007    0.0000 O.2     1  LIG1       -0.3600
      9 N          -0.9821   -0.4667    0.0000 N.ar    1  LIG1       -0.0712
     10 C          -0.1974   -0.2118    0.0000 C.ar    1  LIG1        0.1954
     11 H           2.1690   -0.7531    0.0000 H       1  LIG1        0.1698
     12 H           2.1854    1.1640    0.0000 H       1  LIG1        0.1028
     13 H          -1.3225    1.9157    0.0000 H       1  LIG1        0.1080
@<TRIPOS>BOND
     1     1     2    2
     2     2     3   ar
     3     3     4   ar
     4     4     5   ar
     5     5     6   ar
     6     6     7   ar
     7     7     8   ar
     8     8     9   ar
     9     9    10   ar
    10     2    10   ar
    11     6    10   ar
    12     3    11    1
    13     4    12    1
    14     7    13    1
