@<TRIPOS>MOLECULE
O=c1occ2cnccn12
 14 15 0 0 0
SMALL
GASTEIGER
Energy = 0

@<TRIPOS>ATOM
      1 O           1.0286   -1.2762    0.0000 O.2     1  LIG1       -0.2223
      2 C           0.7736   -0.4915    0.0000 C.ar    1  LIG1        0.4249
      3 O           1.2586    0.1759    0.0000 O.2     1  LIG1       -0.4150
      4 C           0.7736    0.8433    0.0000 C.ar    1  LIG1        0.1229
      5 C          -0.0110    0.5884    0.0000 C.ar    1  LIG1        0.1053
      6 C          -0.7255    1.0009    0.0000 C.ar    1  LIG1        0.0546
      7 N          -1.4399    0.5884    0.0000 N.ar    1  LIG1       -0.2597
      8 C          -1.4399   -0.2366    0.0000 C.ar    1  LIG1        0.0443
      9 C          -0.7255   -0.6491    0.0000 C.ar    1  LIG1        0.0344
     10 N          -0.0110   -0.2366    0.0000 N.ar    1  LIG1       -0.2473
     11 H           1.1139    1.8909    0.0000 H       1  LIG1        0.1053
     12 H          -0.7255    2.1024    0.0000 H       1  LIG1        0.0852
     13 H          -2.3938   -0.7873    0.0000 H       1  LIG1        0.0844
     14 H          -0.7255   -1.7506    0.0000 H       1  LIG1        0.0830
@<TRIPOS>BOND
     1     1     2    2
     2     2     3   ar
     3     3     4   ar
     4     4     5   ar
     5     5     6   ar
     6     6     7   ar
     7     7     8   ar
     8     8     9   ar
     9     9    10   ar
    10     2    10   ar
    11     5    10   ar
    12     4    11    1
    13     6    12    1
    14     8    13    1
    15     9    14    1
