@<TRIPOS>MOLECULE
O=c1[nH]ccc2nccn12
 15 16 0 0 0
SMALL
GASTEIGER
Energy = 0

@<TRIPOS>ATOM
      1 O           0.4830   -1.4446    0.0000 O.2     1  LIG1       -0.2461
      2 C           0.4830   -0.6196    0.0000 C.ar    1  LIG1        0.3322
      3 N           1.1975   -0.2071    0.0000 N.ar    1  LIG1       -0.3140
      4 C           1.1975    0.6179    0.0000 C.ar    1  LIG1        0.0098
      5 C           0.4830    1.0304    0.0000 C.ar    1  LIG1       -0.0026
      6 C          -0.2315    0.6179    0.0000 C.ar    1  LIG1        0.1427
      7 N          -1.0161    0.8728    0.0000 N.ar    1  LIG1       -0.2359
      8 C          -1.5010    0.2054    0.0000 C.ar    1  LIG1        0.0466
      9 C          -1.0161   -0.4621    0.0000 C.ar    1  LIG1        0.0342
     10 N          -0.2315   -0.2071    0.0000 N.ar    1  LIG1       -0.2520
     11 H           2.1350   -0.7484    0.0000 H       1  LIG1        0.1698
     12 H           2.1514    1.1687    0.0000 H       1  LIG1        0.0809
     13 H           0.4830    2.1319    0.0000 H       1  LIG1        0.0669
     14 H          -2.6025    0.2054    0.0000 H       1  LIG1        0.0845
     15 H          -1.3565   -1.5097    0.0000 H       1  LIG1        0.0830
@<TRIPOS>BOND
     1     1     2    2
     2     2     3   ar
     3     3     4   ar
     4     4     5   ar
     5     5     6   ar
     6     6     7   ar
     7     7     8   ar
     8     8     9   ar
     9     9    10   ar
    10     2    10   ar
    11     6    10   ar
    12     3    11    1
    13     4    12    1
    14     5    13    1
    15     8    14    1
    16     9    15    1
