@<TRIPOS>MOLECULE
Cn1ccc(=O)c2scnc12
 17 18 0 0 0
SMALL
GASTEIGER
Energy = 0

@<TRIPOS>ATOM
      1 C          -0.5800   -1.7561    0.0000 C.3     1  LIG1        0.0132
      2 N          -0.5800   -0.9311    0.0000 N.ar    1  LIG1       -0.3343
      3 C          -1.2945   -0.5186    0.0000 C.ar    1  LIG1        0.0098
      4 C          -1.2945    0.3064    0.0000 C.ar    1  LIG1        0.0025
      5 C          -0.5800    0.7189    0.0000 C.ar    1  LIG1        0.1975
      6 O          -0.5800    1.5439    0.0000 O.2     1  LIG1       -0.2866
      7 C           0.1344    0.3064    0.0000 C.ar    1  LIG1        0.1026
      8 C           0.1344   -0.5186    0.0000 C.ar    1  LIG1        0.1514
      9 N           0.9190   -0.7735    0.0000 N.ar    1  LIG1       -0.2296
     10 C           1.4040   -0.1061    0.0000 C.ar    1  LIG1        0.0677
     11 S           0.9190    0.5614    0.0000 S.2     1  LIG1       -0.0701
     12 H          -1.6546   -2.1366    0.0000 H       1  LIG1        0.0456
     13 H          -0.0215   -2.1508    0.9121 H       1  LIG1        0.0456
     14 H          -0.0498   -2.1308   -0.9370 H       1  LIG1        0.0456
     15 H          -2.2484   -1.0694    0.0000 H       1  LIG1        0.0810
     16 H          -2.2484    0.8572    0.0000 H       1  LIG1        0.0671
     17 H           2.5055   -0.1061    0.0000 H       1  LIG1        0.0908
@<TRIPOS>BOND
     1     1     2    1
     2     2     3   ar
     3     3     4   ar
     4     4     5   ar
     5     5     6    2
     6     5     7   ar
     7     7     8   ar
     8     2     8   ar
     9     8     9   ar
    10     9    10   ar
    11    10    11   ar
    12     7    11   ar
    13     1    12    1
    14     1    13    1
    15     1    14    1
    16     3    15    1
    17     4    16    1
    18    10    17    1
