@<TRIPOS>MOLECULE
O=c1ccnc2cc[nH]n12
 15 16 0 0 0
SMALL
GASTEIGER
Energy = 0

@<TRIPOS>ATOM
      1 O           0.4940   -1.4431    0.0000 O.2     1  LIG1       -0.2658
      2 C           0.4940   -0.6181    0.0000 C.ar    1  LIG1        0.2729
      3 C           1.2084   -0.2056    0.0000 C.ar    1  LIG1        0.0228
      4 C           1.2084    0.6194    0.0000 C.ar    1  LIG1        0.0351
      5 N           0.4940    1.0319    0.0000 N.ar    1  LIG1       -0.2359
      6 C          -0.2205    0.6194    0.0000 C.ar    1  LIG1        0.1570
      7 C          -1.0051    0.8743    0.0000 C.ar    1  LIG1        0.0000
      8 C          -1.4900    0.2069    0.0000 C.ar    1  LIG1        0.0230
      9 N          -1.0051   -0.4606    0.0000 N.ar    1  LIG1       -0.2960
     10 N          -0.2205   -0.2056    0.0000 N.ar    1  LIG1       -0.2013
     11 H           2.1623   -0.7563    0.0000 H       1  LIG1        0.0687
     12 H           2.1623    1.1701    0.0000 H       1  LIG1        0.0832
     13 H          -1.3455    1.9219    0.0000 H       1  LIG1        0.0670
     14 H          -2.5915    0.2069    0.0000 H       1  LIG1        0.0824
     15 H          -1.3396   -1.4901    0.0000 H       1  LIG1        0.1868
@<TRIPOS>BOND
     1     1     2    2
     2     2     3   ar
     3     3     4   ar
     4     4     5   ar
     5     5     6   ar
     6     6     7   ar
     7     7     8   ar
     8     8     9   ar
     9     9    10   ar
    10     2    10   ar
    11     6    10   ar
    12     3    11    1
    13     4    12    1
    14     7    13    1
    15     8    14    1
    16     9    15    1
