@<TRIPOS>MOLECULE
Cn1cnc(=O)c2nncnc12
 17 18 0 0 0
SMALL
GASTEIGER
Energy = 0

@<TRIPOS>ATOM
      1 C           0.5969   -1.6916    0.0000 C.3     1  LIG1        0.0146
      2 N           0.5969   -0.8666    0.0000 N.ar    1  LIG1       -0.3178
      3 C           1.3114   -0.4541    0.0000 C.ar    1  LIG1        0.1012
      4 N           1.3114    0.3709    0.0000 N.ar    1  LIG1       -0.1974
      5 C           0.5969    0.7834    0.0000 C.ar    1  LIG1        0.3024
      6 O           0.5969    1.6084    0.0000 O.2     1  LIG1       -0.2633
      7 C          -0.1176    0.3709    0.0000 C.ar    1  LIG1        0.1943
      8 N          -0.8320    0.7834    0.0000 N.ar    1  LIG1       -0.1391
      9 N          -1.5465    0.3709    0.0000 N.ar    1  LIG1       -0.1369
     10 C          -1.5465   -0.4541    0.0000 C.ar    1  LIG1        0.1406
     11 N          -0.8320   -0.8666    0.0000 N.ar    1  LIG1       -0.2141
     12 C          -0.1176   -0.4541    0.0000 C.ar    1  LIG1        0.1689
     13 H           1.6715   -2.0721    0.0000 H       1  LIG1        0.0457
     14 H           0.0384   -2.0863   -0.9121 H       1  LIG1        0.0457
     15 H           0.0667   -2.0663    0.9370 H       1  LIG1        0.0457
     16 H           2.2653   -1.0049    0.0000 H       1  LIG1        0.1030
     17 H          -2.5004   -1.0049    0.0000 H       1  LIG1        0.1066
@<TRIPOS>BOND
     1     1     2    1
     2     2     3   ar
     3     3     4   ar
     4     4     5   ar
     5     5     6    2
     6     5     7   ar
     7     7     8   ar
     8     8     9   ar
     9     9    10   ar
    10    10    11   ar
    11    11    12   ar
    12     2    12   ar
    13     7    12   ar
    14     1    13    1
    15     1    14    1
    16     1    15    1
    17     3    16    1
    18    10    17    1
