@<TRIPOS>MOLECULE
Cn1c(=O)ccc2scnc12
 17 18 0 0 0
SMALL
GASTEIGER
Energy = 0

@<TRIPOS>ATOM
      1 C          -0.4373   -1.5088    0.0000 C.3     1  LIG1        0.0167
      2 N          -0.4373   -0.6838    0.0000 N.ar    1  LIG1       -0.2955
      3 C          -1.1518   -0.2713    0.0000 C.ar    1  LIG1        0.2526
      4 O          -1.8662   -0.6838    0.0000 O.2     1  LIG1       -0.2677
      5 C          -1.1518    0.5537    0.0000 C.ar    1  LIG1        0.0041
      6 C          -0.4373    0.9662    0.0000 C.ar    1  LIG1       -0.0393
      7 C           0.2772    0.5537    0.0000 C.ar    1  LIG1        0.0562
      8 C           0.2772   -0.2713    0.0000 C.ar    1  LIG1        0.1503
      9 N           1.0618   -0.5263    0.0000 N.ar    1  LIG1       -0.2296
     10 C           1.5467    0.1412    0.0000 C.ar    1  LIG1        0.0676
     11 S           1.0618    0.8086    0.0000 S.2     1  LIG1       -0.0738
     12 H          -1.5119   -1.8893    0.0000 H       1  LIG1        0.0457
     13 H           0.1212   -1.9035    0.9121 H       1  LIG1        0.0457
     14 H           0.0929   -1.8835   -0.9370 H       1  LIG1        0.0457
     15 H          -2.1057    1.1045    0.0000 H       1  LIG1        0.0672
     16 H          -0.4373    2.0677    0.0000 H       1  LIG1        0.0631
     17 H           2.6482    0.1412    0.0000 H       1  LIG1        0.0908
@<TRIPOS>BOND
     1     1     2    1
     2     2     3   ar
     3     3     4    2
     4     3     5   ar
     5     5     6   ar
     6     6     7   ar
     7     7     8   ar
     8     2     8   ar
     9     8     9   ar
    10     9    10   ar
    11    10    11   ar
    12     7    11   ar
    13     1    12    1
    14     1    13    1
    15     1    14    1
    16     5    15    1
    17     6    16    1
    18    10    17    1
