@<TRIPOS>MOLECULE
c1ccc2snnc2c1
 13 14 0 0 0
SMALL
GASTEIGER
Energy = 0

@<TRIPOS>ATOM
      1 S           0.7661   -0.5762    0.0000 S.2     1  LIG1        0.0366
      2 N           1.2510    0.0912    0.0000 N.ar    1  LIG1       -0.1094
      3 N           0.7661    0.7587    0.0000 N.ar    1  LIG1       -0.1412
      4 C          -0.0185    0.5037    0.0000 C.ar    1  LIG1        0.1019
      5 C          -0.7330    0.9162    0.0000 C.ar    1  LIG1       -0.0334
      6 C          -1.4474    0.5037    0.0000 C.ar    1  LIG1       -0.0596
      7 C          -1.4474   -0.3213    0.0000 C.ar    1  LIG1       -0.0605
      8 C          -0.7330   -0.7338    0.0000 C.ar    1  LIG1       -0.0444
      9 C          -0.0185   -0.3213    0.0000 C.ar    1  LIG1        0.0595
     10 H          -0.7330    2.0177    0.0000 H       1  LIG1        0.0640
     11 H          -2.4013    1.0544    0.0000 H       1  LIG1        0.0618
     12 H          -2.4013   -0.8720    0.0000 H       1  LIG1        0.0618
     13 H          -0.7330   -1.8353    0.0000 H       1  LIG1        0.0630
@<TRIPOS>BOND
     1     1     2   ar
     2     2     3   ar
     3     3     4   ar
     4     4     5   ar
     5     5     6   ar
     6     6     7   ar
     7     7     8   ar
     8     8     9   ar
     9     1     9   ar
    10     4     9   ar
    11     5    10    1
    12     6    11    1
    13     7    12    1
    14     8    13    1
