@<TRIPOS>MOLECULE
Cn1c(=O)ccn2ccnc12
 18 19 0 0 0
SMALL
GASTEIGER
Energy = 0

@<TRIPOS>ATOM
      1 C           0.2913   -1.4025    0.0000 C.3     1  LIG1        0.0180
      2 N           0.2913   -0.5775    0.0000 N.ar    1  LIG1       -0.2816
      3 C           1.0058   -0.1650    0.0000 C.ar    1  LIG1        0.2550
      4 O           1.7203   -0.5775    0.0000 O.2     1  LIG1       -0.2676
      5 C           1.0058    0.6600    0.0000 C.ar    1  LIG1        0.0196
      6 C           0.2913    1.0725    0.0000 C.ar    1  LIG1        0.0177
      7 N          -0.4231    0.6600    0.0000 N.ar    1  LIG1       -0.2921
      8 C          -1.2078    0.9150    0.0000 C.ar    1  LIG1        0.0307
      9 C          -1.6927    0.2475    0.0000 C.ar    1  LIG1        0.0479
     10 N          -1.2078   -0.4199    0.0000 N.ar    1  LIG1       -0.2201
     11 C          -0.4231   -0.1650    0.0000 C.ar    1  LIG1        0.2176
     12 H           1.3659   -1.7830    0.0000 H       1  LIG1        0.0458
     13 H          -0.2672   -1.7972   -0.9121 H       1  LIG1        0.0458
     14 H          -0.2389   -1.7772    0.9370 H       1  LIG1        0.0458
     15 H           1.9597    1.2108    0.0000 H       1  LIG1        0.0686
     16 H           0.2913    2.1740    0.0000 H       1  LIG1        0.0815
     17 H          -1.5482    1.9626    0.0000 H       1  LIG1        0.0829
     18 H          -2.7942    0.2475    0.0000 H       1  LIG1        0.0846
@<TRIPOS>BOND
     1     1     2    1
     2     2     3   ar
     3     3     4    2
     4     3     5   ar
     5     5     6   ar
     6     6     7   ar
     7     7     8   ar
     8     8     9   ar
     9     9    10   ar
    10    10    11   ar
    11     2    11   ar
    12     7    11   ar
    13     1    12    1
    14     1    13    1
    15     1    14    1
    16     5    15    1
    17     6    16    1
    18     8    17    1
    19     9    18    1
