@<TRIPOS>MOLECULE
O=c1cc[nH]c2occc12
 15 16 0 0 0
SMALL
GASTEIGER
Energy = 0

@<TRIPOS>ATOM
      1 O          -0.5060   -1.4802    0.0000 O.2     1  LIG1       -0.2870
      2 C          -0.5060   -0.6552    0.0000 C.ar    1  LIG1        0.1926
      3 C          -1.2205   -0.2427    0.0000 C.ar    1  LIG1        0.0019
      4 C          -1.2205    0.5823    0.0000 C.ar    1  LIG1        0.0085
      5 N          -0.5060    0.9948    0.0000 N.ar    1  LIG1       -0.3318
      6 C           0.2085    0.5823    0.0000 C.ar    1  LIG1        0.2091
      7 C           0.2085   -0.2427    0.0000 C.ar    1  LIG1        0.0844
      8 C           0.9931   -0.4976    0.0000 C.ar    1  LIG1       -0.0108
      9 C           1.4780    0.1698    0.0000 C.ar    1  LIG1        0.0951
     10 O           0.9931    0.8373    0.0000 O.2     1  LIG1       -0.4467
     11 H          -2.1744   -0.7935    0.0000 H       1  LIG1        0.0670
     12 H          -2.1744    1.1331    0.0000 H       1  LIG1        0.0809
     13 H          -0.5060    2.0773    0.0000 H       1  LIG1        0.1682
     14 H           1.3335   -1.5452    0.0000 H       1  LIG1        0.0657
     15 H           2.5795    0.1698    0.0000 H       1  LIG1        0.1030
@<TRIPOS>BOND
     1     1     2    2
     2     2     3   ar
     3     3     4   ar
     4     4     5   ar
     5     5     6   ar
     6     6     7   ar
     7     2     7   ar
     8     7     8   ar
     9     8     9   ar
    10     9    10   ar
    11     6    10   ar
    12     3    11    1
    13     4    12    1
    14     5    13    1
    15     8    14    1
    16     9    15    1
