@<TRIPOS>MOLECULE
c1cscn1
 8 8 0 0 0
SMALL
GASTEIGER
Energy = 0

@<TRIPOS>ATOM
      1 S          -0.1586   -0.5206    0.0000 S.2     1  LIG1       -0.0839
      2 C           0.6260   -0.2657    0.0000 C.ar    1  LIG1       -0.0048
      3 C           0.6260    0.5593    0.0000 C.ar    1  LIG1        0.0347
      4 N          -0.1586    0.8142    0.0000 N.ar    1  LIG1       -0.2557
      5 C          -0.6435    0.1468    0.0000 C.ar    1  LIG1        0.0647
      6 H           1.5171   -0.9132    0.0000 H       1  LIG1        0.0709
      7 H           1.5171    1.2068    0.0000 H       1  LIG1        0.0835
      8 H          -1.7450    0.1468    0.0000 H       1  LIG1        0.0907
@<TRIPOS>BOND
     1     1     2   ar
     2     2     3   ar
     3     3     4   ar
     4     4     5   ar
     5     1     5   ar
     6     2     6    1
     7     3     7    1
     8     5     8    1
