@<TRIPOS>MOLECULE
c1onc2ccncc12
 13 14 0 0 0
SMALL
GASTEIGER
Energy = 0

@<TRIPOS>ATOM
      1 O           1.3868    0.0044    0.0000 O.2     1  LIG1       -0.3617
      2 C           0.9019    0.6718    0.0000 C.ar    1  LIG1        0.1334
      3 C           0.1173    0.4169    0.0000 C.ar    1  LIG1        0.0590
      4 C          -0.5972    0.8294    0.0000 C.ar    1  LIG1        0.0398
      5 N          -1.3117    0.4169    0.0000 N.ar    1  LIG1       -0.2624
      6 C          -1.3117   -0.4081    0.0000 C.ar    1  LIG1        0.0297
      7 C          -0.5972   -0.8206    0.0000 C.ar    1  LIG1       -0.0143
      8 C           0.1173   -0.4081    0.0000 C.ar    1  LIG1        0.1162
      9 N           0.9019   -0.6631    0.0000 N.ar    1  LIG1       -0.0783
     10 H           1.2423    1.7194    0.0000 H       1  LIG1        0.1064
     11 H          -0.5972    1.9309    0.0000 H       1  LIG1        0.0837
     12 H          -2.2656   -0.9589    0.0000 H       1  LIG1        0.0830
     13 H          -0.5972   -1.9221    0.0000 H       1  LIG1        0.0655
@<TRIPOS>BOND
     1     1     2   ar
     2     2     3   ar
     3     3     4   ar
     4     4     5   ar
     5     5     6   ar
     6     6     7   ar
     7     7     8   ar
     8     3     8   ar
     9     8     9   ar
    10     1     9   ar
    11     2    10    1
    12     4    11    1
    13     6    12    1
    14     7    13    1
