@<TRIPOS>MOLECULE
c1cc2nnncn2n1
 12 13 0 0 0
SMALL
GASTEIGER
Energy = 0

@<TRIPOS>ATOM
      1 C           1.4640   -0.0043    0.0000 C.ar    1  LIG1        0.0520
      2 N           0.9790    0.6631    0.0000 N.ar    1  LIG1       -0.1719
      3 N           0.1944    0.4082    0.0000 N.ar    1  LIG1       -0.2000
      4 C          -0.5201    0.8207    0.0000 C.ar    1  LIG1        0.1437
      5 N          -1.2345    0.4082    0.0000 N.ar    1  LIG1       -0.1178
      6 N          -1.2345   -0.4168    0.0000 N.ar    1  LIG1       -0.0398
      7 N          -0.5201   -0.8293    0.0000 N.ar    1  LIG1       -0.1097
      8 C           0.1944   -0.4168    0.0000 C.ar    1  LIG1        0.1807
      9 C           0.9790   -0.6717    0.0000 C.ar    1  LIG1        0.0042
     10 H           2.5655   -0.0043    0.0000 H       1  LIG1        0.0848
     11 H          -0.5201    1.9222    0.0000 H       1  LIG1        0.1067
     12 H           1.3193   -1.7193    0.0000 H       1  LIG1        0.0671
@<TRIPOS>BOND
     1     1     2   ar
     2     2     3   ar
     3     3     4   ar
     4     4     5   ar
     5     5     6   ar
     6     6     7   ar
     7     7     8   ar
     8     3     8   ar
     9     8     9   ar
    10     1     9   ar
    11     1    10    1
    12     4    11    1
    13     9    12    1
