@<TRIPOS>MOLECULE
O=c1[nH]c2cccnc2[nH]1
 15 16 0 0 0
SMALL
GASTEIGER
Energy = 0

@<TRIPOS>ATOM
      1 O           1.9575    0.0127    0.0000 O.2     1  LIG1       -0.2467
      2 C           1.1325    0.0127    0.0000 C.ar    1  LIG1        0.3261
      3 N           0.6476    0.6801    0.0000 N.ar    1  LIG1       -0.3048
      4 C          -0.1370    0.4252    0.0000 C.ar    1  LIG1        0.0860
      5 C          -0.8515    0.8377    0.0000 C.ar    1  LIG1       -0.0332
      6 C          -1.5660    0.4252    0.0000 C.ar    1  LIG1       -0.0415
      7 C          -1.5660   -0.3998    0.0000 C.ar    1  LIG1        0.0300
      8 N          -0.8515   -0.8123    0.0000 N.ar    1  LIG1       -0.2359
      9 C          -0.1370   -0.3998    0.0000 C.ar    1  LIG1        0.1583
     10 N           0.6476   -0.6548    0.0000 N.ar    1  LIG1       -0.2910
     11 H           0.9821    1.7096    0.0000 H       1  LIG1        0.1705
     12 H          -0.8515    1.9392    0.0000 H       1  LIG1        0.0640
     13 H          -2.5199    0.9760    0.0000 H       1  LIG1        0.0633
     14 H          -2.5199   -0.9506    0.0000 H       1  LIG1        0.0830
     15 H           0.9821   -1.6843    0.0000 H       1  LIG1        0.1719
@<TRIPOS>BOND
     1     1     2    2
     2     2     3   ar
     3     3     4   ar
     4     4     5   ar
     5     5     6   ar
     6     6     7   ar
     7     7     8   ar
     8     8     9   ar
     9     4     9   ar
    10     9    10   ar
    11     2    10   ar
    12     3    11    1
    13     5    12    1
    14     6    13    1
    15     7    14    1
    16    10    15    1
