@<TRIPOS>MOLECULE
O=c1[nH]ccc2[nH]nnc12
 14 15 0 0 0
SMALL
GASTEIGER
Energy = 0

@<TRIPOS>ATOM
      1 O          -0.5176   -1.4439    0.0000 O.2     1  LIG1       -0.2655
      2 C          -0.5176   -0.6189    0.0000 C.ar    1  LIG1        0.2781
      3 N          -1.2320   -0.2064    0.0000 N.ar    1  LIG1       -0.3272
      4 C          -1.2320    0.6186    0.0000 C.ar    1  LIG1        0.0071
      5 C          -0.5176    1.0311    0.0000 C.ar    1  LIG1       -0.0185
      6 C           0.1969    0.6186    0.0000 C.ar    1  LIG1        0.0925
      7 C           0.1969   -0.2064    0.0000 C.ar    1  LIG1        0.1764
      8 N           0.9815   -0.4613    0.0000 N.ar    1  LIG1       -0.1242
      9 N           1.4665    0.2061    0.0000 N.ar    1  LIG1       -0.0671
     10 N           0.9815    0.8735    0.0000 N.ar    1  LIG1       -0.2569
     11 H          -2.1695   -0.7476    0.0000 H       1  LIG1        0.1684
     12 H          -2.1859    1.1693    0.0000 H       1  LIG1        0.0808
     13 H          -0.5176    2.1326    0.0000 H       1  LIG1        0.0654
     14 H           1.3160    1.9030    0.0000 H       1  LIG1        0.1907
@<TRIPOS>BOND
     1     1     2    2
     2     2     3   ar
     3     3     4   ar
     4     4     5   ar
     5     5     6   ar
     6     6     7   ar
     7     2     7   ar
     8     7     8   ar
     9     8     9   ar
    10     9    10   ar
    11     6    10   ar
    12     3    11    1
    13     4    12    1
    14     5    13    1
    15    10    14    1
