@<TRIPOS>MOLECULE
O=c1cnc2nccn2[nH]1
 14 15 0 0 0
SMALL
GASTEIGER
Energy = 0

@<TRIPOS>ATOM
      1 O           1.7424    0.7289    0.0000 O.2     1  LIG1       -0.2648
      2 C           1.0279    0.3164    0.0000 C.ar    1  LIG1        0.2818
      3 N           0.3134    0.7289    0.0000 N.ar    1  LIG1       -0.2554
      4 N          -0.4011    0.3164    0.0000 N.ar    1  LIG1       -0.2242
      5 C          -1.1857    0.5714    0.0000 C.ar    1  LIG1        0.0490
      6 C          -1.6706   -0.0961    0.0000 C.ar    1  LIG1        0.0496
      7 N          -1.1857   -0.7635    0.0000 N.ar    1  LIG1       -0.2176
      8 C          -0.4011   -0.5086    0.0000 C.ar    1  LIG1        0.2499
      9 N           0.3134   -0.9211    0.0000 N.ar    1  LIG1       -0.2137
     10 C           1.0279   -0.5086    0.0000 C.ar    1  LIG1        0.0970
     11 H           0.3134    1.8114    0.0000 H       1  LIG1        0.1907
     12 H          -1.5261    1.6190    0.0000 H       1  LIG1        0.0846
     13 H          -2.7721   -0.0961    0.0000 H       1  LIG1        0.0846
     14 H           1.9818   -1.0594    0.0000 H       1  LIG1        0.0887
@<TRIPOS>BOND
     1     1     2    2
     2     2     3   ar
     3     3     4   ar
     4     4     5   ar
     5     5     6   ar
     6     6     7   ar
     7     7     8   ar
     8     4     8   ar
     9     8     9   ar
    10     9    10   ar
    11     2    10   ar
    12     3    11    1
    13     5    12    1
    14     6    13    1
    15    10    14    1
