@<TRIPOS>MOLECULE
Cn1c(=O)ncc2cnoc12
 16 17 0 0 0
SMALL
GASTEIGER
Energy = 0

@<TRIPOS>ATOM
      1 C          -0.3114   -1.4001    0.0000 C.3     1  LIG1        0.0196
      2 N          -0.3114   -0.5751    0.0000 N.ar    1  LIG1       -0.2635
      3 C          -1.0259   -0.1626    0.0000 C.ar    1  LIG1        0.3509
      4 O          -1.7403   -0.5751    0.0000 O.2     1  LIG1       -0.2444
      5 N          -1.0259    0.6624    0.0000 N.ar    1  LIG1       -0.2005
      6 C          -0.3114    1.0749    0.0000 C.ar    1  LIG1        0.0468
      7 C           0.4031    0.6624    0.0000 C.ar    1  LIG1        0.0771
      8 C           0.4031   -0.1626    0.0000 C.ar    1  LIG1        0.2444
      9 O           1.1877   -0.4176    0.0000 O.2     1  LIG1       -0.3361
     10 N           1.6726    0.2499    0.0000 N.ar    1  LIG1       -0.0836
     11 C           1.1877    0.9173    0.0000 C.ar    1  LIG1        0.0808
     12 H          -1.3860   -1.7806    0.0000 H       1  LIG1        0.0458
     13 H           0.2471   -1.7948    0.9121 H       1  LIG1        0.0458
     14 H           0.2188   -1.7748   -0.9370 H       1  LIG1        0.0458
     15 H          -0.3114    2.1764    0.0000 H       1  LIG1        0.0839
     16 H           1.5281    1.9649    0.0000 H       1  LIG1        0.0871
@<TRIPOS>BOND
     1     1     2    1
     2     2     3   ar
     3     3     4    2
     4     3     5   ar
     5     5     6   ar
     6     6     7   ar
     7     7     8   ar
     8     2     8   ar
     9     8     9   ar
    10     9    10   ar
    11    10    11   ar
    12     7    11   ar
    13     1    12    1
    14     1    13    1
    15     1    14    1
    16     6    15    1
    17    11    16    1
