@<TRIPOS>MOLECULE
O=c1ccc2cnccc2[nH]1
 17 18 0 0 0
SMALL
GASTEIGER
Energy = 0

@<TRIPOS>ATOM
      1 O           1.9088    0.7249    0.0000 O.2     1  LIG1       -0.2679
      2 C           1.1943    0.3124    0.0000 C.ar    1  LIG1        0.2492
      3 N           0.4799    0.7249    0.0000 N.ar    1  LIG1       -0.3220
      4 C          -0.2346    0.3124    0.0000 C.ar    1  LIG1        0.0520
      5 C          -0.9491    0.7249    0.0000 C.ar    1  LIG1       -0.0196
      6 C          -1.6635    0.3124    0.0000 C.ar    1  LIG1        0.0295
      7 N          -1.6635   -0.5126    0.0000 N.ar    1  LIG1       -0.2625
      8 C          -0.9491   -0.9251    0.0000 C.ar    1  LIG1        0.0367
      9 C          -0.2346   -0.5126    0.0000 C.ar    1  LIG1        0.0166
     10 C           0.4799   -0.9251    0.0000 C.ar    1  LIG1       -0.0461
     11 C           1.1943   -0.5126    0.0000 C.ar    1  LIG1        0.0034
     12 H           0.4799    1.8074    0.0000 H       1  LIG1        0.1689
     13 H          -0.9491    1.8264    0.0000 H       1  LIG1        0.0653
     14 H          -2.6174    0.8631    0.0000 H       1  LIG1        0.0830
     15 H          -0.9491   -2.0266    0.0000 H       1  LIG1        0.0836
     16 H           0.4799   -2.0266    0.0000 H       1  LIG1        0.0626
     17 H           2.1482   -1.0633    0.0000 H       1  LIG1        0.0672
@<TRIPOS>BOND
     1     1     2    2
     2     2     3   ar
     3     3     4   ar
     4     4     5   ar
     5     5     6   ar
     6     6     7   ar
     7     7     8   ar
     8     8     9   ar
     9     4     9   ar
    10     9    10   ar
    11    10    11   ar
    12     2    11   ar
    13     3    12    1
    14     5    13    1
    15     6    14    1
    16     8    15    1
    17    10    16    1
    18    11    17    1
