@<TRIPOS>MOLECULE
Cn1sc2ncccc2c1=O
 17 18 0 0 0
SMALL
GASTEIGER
Energy = 0

@<TRIPOS>ATOM
      1 C           1.8370    0.0512    0.0000 C.3     1  LIG1        0.0221
      2 N           1.0120    0.0512    0.0000 N.ar    1  LIG1       -0.2798
      3 S           0.5271    0.7186    0.0000 S.2     1  LIG1        0.0118
      4 C          -0.2575    0.4637    0.0000 C.ar    1  LIG1        0.1297
      5 N          -0.9720    0.8762    0.0000 N.ar    1  LIG1       -0.2463
      6 C          -1.6865    0.4637    0.0000 C.ar    1  LIG1        0.0289
      7 C          -1.6865   -0.3613    0.0000 C.ar    1  LIG1       -0.0428
      8 C          -0.9720   -0.7738    0.0000 C.ar    1  LIG1       -0.0453
      9 C          -0.2575   -0.3613    0.0000 C.ar    1  LIG1        0.0734
     10 C           0.5271   -0.6162    0.0000 C.ar    1  LIG1        0.2669
     11 O           0.7821   -1.4009    0.0000 O.2     1  LIG1       -0.2664
     12 H           2.2175    1.1258    0.0000 H       1  LIG1        0.0463
     13 H           2.2317   -0.5073   -0.9121 H       1  LIG1        0.0463
     14 H           2.2117   -0.4790    0.9370 H       1  LIG1        0.0463
     15 H          -2.6404    1.0145    0.0000 H       1  LIG1        0.0830
     16 H          -2.6404   -0.9121    0.0000 H       1  LIG1        0.0633
     17 H          -0.9720   -1.8753    0.0000 H       1  LIG1        0.0626
@<TRIPOS>BOND
     1     1     2    1
     2     2     3   ar
     3     3     4   ar
     4     4     5   ar
     5     5     6   ar
     6     6     7   ar
     7     7     8   ar
     8     8     9   ar
     9     4     9   ar
    10     9    10   ar
    11     2    10   ar
    12    10    11    2
    13     1    12    1
    14     1    13    1
    15     1    14    1
    16     6    15    1
    17     7    16    1
    18     8    17    1
