@<TRIPOS>MOLECULE
Cn1cnc2ccncc2c1=O
 19 20 0 0 0
SMALL
GASTEIGER
Energy = 0

@<TRIPOS>ATOM
      1 C           1.8929   -0.5894    0.0000 C.3     1  LIG1        0.0161
      2 N           1.1785   -0.1769    0.0000 N.ar    1  LIG1       -0.3018
      3 C           1.1785    0.6481    0.0000 C.ar    1  LIG1        0.0990
      4 N           0.4640    1.0606    0.0000 N.ar    1  LIG1       -0.2369
      5 C          -0.2505    0.6481    0.0000 C.ar    1  LIG1        0.0807
      6 C          -0.9650    1.0606    0.0000 C.ar    1  LIG1       -0.0174
      7 C          -1.6794    0.6481    0.0000 C.ar    1  LIG1        0.0296
      8 N          -1.6794   -0.1769    0.0000 N.ar    1  LIG1       -0.2624
      9 C          -0.9650   -0.5894    0.0000 C.ar    1  LIG1        0.0419
     10 C          -0.2505   -0.1769    0.0000 C.ar    1  LIG1        0.0829
     11 C           0.4640   -0.5894    0.0000 C.ar    1  LIG1        0.2628
     12 O           0.4640   -1.4144    0.0000 O.2     1  LIG1       -0.2669
     13 H           2.7598    0.1509    0.0000 H       1  LIG1        0.0457
     14 H           1.9554   -1.2704   -0.9121 H       1  LIG1        0.0457
     15 H           1.9523   -1.2360    0.9370 H       1  LIG1        0.0457
     16 H           2.1324    1.1989    0.0000 H       1  LIG1        0.1030
     17 H          -0.9650    2.1621    0.0000 H       1  LIG1        0.0654
     18 H          -2.6333    1.1988    0.0000 H       1  LIG1        0.0830
     19 H          -0.9650   -1.6909    0.0000 H       1  LIG1        0.0838
@<TRIPOS>BOND
     1     1     2    1
     2     2     3   ar
     3     3     4   ar
     4     4     5   ar
     5     5     6   ar
     6     6     7   ar
     7     7     8   ar
     8     8     9   ar
     9     9    10   ar
    10     5    10   ar
    11    10    11   ar
    12     2    11   ar
    13    11    12    2
    14     1    13    1
    15     1    14    1
    16     1    15    1
    17     3    16    1
    18     6    17    1
    19     7    18    1
    20     9    19    1
