@<TRIPOS>MOLECULE
Cn1cc2occc2nc1=O
 17 18 0 0 0
SMALL
GASTEIGER
Energy = 0

@<TRIPOS>ATOM
      1 C           1.5981    0.8351    0.0000 C.3     1  LIG1        0.0163
      2 N           0.8836    0.4226    0.0000 N.ar    1  LIG1       -0.2986
      3 C           0.1691    0.8351    0.0000 C.ar    1  LIG1        0.0534
      4 C          -0.5453    0.4226    0.0000 C.ar    1  LIG1        0.1692
      5 O          -1.3300    0.6775    0.0000 O.2     1  LIG1       -0.4599
      6 C          -1.8149    0.0101    0.0000 C.ar    1  LIG1        0.0947
      7 C          -1.3300   -0.6574    0.0000 C.ar    1  LIG1        0.0024
      8 C          -0.5453   -0.4024    0.0000 C.ar    1  LIG1        0.1157
      9 N           0.1691   -0.8149    0.0000 N.ar    1  LIG1       -0.1897
     10 C           0.8836   -0.4024    0.0000 C.ar    1  LIG1        0.3489
     11 O           1.5981   -0.8149    0.0000 O.2     1  LIG1       -0.2445
     12 H           1.3904    1.9560    0.0000 H       1  LIG1        0.0457
     13 H           2.2191    0.5488   -0.9121 H       1  LIG1        0.0457
     14 H           2.1878    0.5633    0.9370 H       1  LIG1        0.0457
     15 H           0.1691    1.9366    0.0000 H       1  LIG1        0.0848
     16 H          -2.9164    0.0101    0.0000 H       1  LIG1        0.1030
     17 H          -1.6704   -1.7050    0.0000 H       1  LIG1        0.0670
@<TRIPOS>BOND
     1     1     2    1
     2     2     3   ar
     3     3     4   ar
     4     4     5   ar
     5     5     6   ar
     6     6     7   ar
     7     7     8   ar
     8     4     8   ar
     9     8     9   ar
    10     9    10   ar
    11     2    10   ar
    12    10    11    2
    13     1    12    1
    14     1    13    1
    15     1    14    1
    16     3    15    1
    17     6    16    1
    18     7    17    1
