@<TRIPOS>MOLECULE
Cn1nnccc1=O
 13 13 0 0 0
SMALL
GASTEIGER
Energy = 0

@<TRIPOS>ATOM
      1 C           0.1887   -1.3232    0.0000 C.3     1  LIG1        0.0356
      2 N           0.1887   -0.4982    0.0000 N.ar    1  LIG1       -0.2140
      3 N           0.9031   -0.0857    0.0000 N.ar    1  LIG1       -0.0630
      4 N           0.9031    0.7393    0.0000 N.ar    1  LIG1       -0.1392
      5 C           0.1887    1.1518    0.0000 C.ar    1  LIG1        0.0567
      6 C          -0.5258    0.7393    0.0000 C.ar    1  LIG1        0.0242
      7 C          -0.5258   -0.0857    0.0000 C.ar    1  LIG1        0.2697
      8 O          -1.2403   -0.4982    0.0000 O.2     1  LIG1       -0.2661
      9 H           1.2633   -1.7037    0.0000 H       1  LIG1        0.0474
     10 H          -0.3698   -1.7179   -0.9121 H       1  LIG1        0.0474
     11 H          -0.3415   -1.6979    0.9370 H       1  LIG1        0.0474
     12 H           0.1887    2.2533    0.0000 H       1  LIG1        0.0850
     13 H          -1.4797    1.2901    0.0000 H       1  LIG1        0.0688
@<TRIPOS>BOND
     1     1     2    1
     2     2     3   ar
     3     3     4   ar
     4     4     5   ar
     5     5     6   ar
     6     6     7   ar
     7     2     7   ar
     8     7     8    2
     9     1     9    1
    10     1    10    1
    11     1    11    1
    12     5    12    1
    13     6    13    1
