@<TRIPOS>MOLECULE
Cn1c(=O)ccc2cncn12
 18 19 0 0 0
SMALL
GASTEIGER
Energy = 0

@<TRIPOS>ATOM
      1 C           0.2981    1.4003    0.0000 C.3     1  LIG1        0.0325
      2 N           0.2981    0.5753    0.0000 N.ar    1  LIG1       -0.2471
      3 N          -0.4163    0.1628    0.0000 N.ar    1  LIG1       -0.2377
      4 C          -1.2010    0.4177    0.0000 C.ar    1  LIG1        0.1163
      5 N          -1.6859   -0.2497    0.0000 N.ar    1  LIG1       -0.2416
      6 C          -1.2010   -0.9172    0.0000 C.ar    1  LIG1        0.0547
      7 C          -0.4163   -0.6622    0.0000 C.ar    1  LIG1        0.0835
      8 C           0.2981   -1.0747    0.0000 C.ar    1  LIG1       -0.0296
      9 C           1.0126   -0.6622    0.0000 C.ar    1  LIG1        0.0063
     10 C           1.0126    0.1628    0.0000 C.ar    1  LIG1        0.2659
     11 O           1.7271    0.5753    0.0000 O.2     1  LIG1       -0.2663
     12 H          -0.7765    1.7808    0.0000 H       1  LIG1        0.0473
     13 H           0.8566    1.7950   -0.9121 H       1  LIG1        0.0473
     14 H           0.8283    1.7750    0.9370 H       1  LIG1        0.0473
     15 H          -1.5414    1.4653    0.0000 H       1  LIG1        0.1047
     16 H          -1.5414   -1.9648    0.0000 H       1  LIG1        0.0852
     17 H           0.2981   -2.1762    0.0000 H       1  LIG1        0.0641
     18 H           1.9665   -1.2130    0.0000 H       1  LIG1        0.0673
@<TRIPOS>BOND
     1     1     2    1
     2     2     3   ar
     3     3     4   ar
     4     4     5   ar
     5     5     6   ar
     6     6     7   ar
     7     3     7   ar
     8     7     8   ar
     9     8     9   ar
    10     9    10   ar
    11     2    10   ar
    12    10    11    2
    13     1    12    1
    14     1    13    1
    15     1    14    1
    16     4    15    1
    17     6    16    1
    18     8    17    1
    19     9    18    1
