@<TRIPOS>MOLECULE
O=c1[nH]ccc2ccoc12
 15 16 0 0 0
SMALL
GASTEIGER
Energy = 0

@<TRIPOS>ATOM
      1 O          -0.4950   -1.4203    0.0000 O.2     1  LIG1       -0.2639
      2 C          -0.4950   -0.5953    0.0000 C.ar    1  LIG1        0.2918
      3 N          -1.2095   -0.1828    0.0000 N.ar    1  LIG1       -0.3261
      4 C          -1.2095    0.6422    0.0000 C.ar    1  LIG1        0.0057
      5 C          -0.4950    1.0547    0.0000 C.ar    1  LIG1       -0.0347
      6 C           0.2194    0.6422    0.0000 C.ar    1  LIG1        0.0269
      7 C           0.2194   -0.1828    0.0000 C.ar    1  LIG1        0.1987
      8 O           1.0041   -0.4377    0.0000 O.2     1  LIG1       -0.4575
      9 C           1.4890    0.2297    0.0000 C.ar    1  LIG1        0.0934
     10 C           1.0041    0.8972    0.0000 C.ar    1  LIG1       -0.0159
     11 H          -2.1470   -0.7241    0.0000 H       1  LIG1        0.1684
     12 H          -2.1634    1.1930    0.0000 H       1  LIG1        0.0808
     13 H          -0.4950    2.1562    0.0000 H       1  LIG1        0.0639
     14 H           2.5905    0.2297    0.0000 H       1  LIG1        0.1030
     15 H           1.3445    1.9448    0.0000 H       1  LIG1        0.0655
@<TRIPOS>BOND
     1     1     2    2
     2     2     3   ar
     3     3     4   ar
     4     4     5   ar
     5     5     6   ar
     6     6     7   ar
     7     2     7   ar
     8     7     8   ar
     9     8     9   ar
    10     9    10   ar
    11     6    10   ar
    12     3    11    1
    13     4    12    1
    14     5    13    1
    15     9    14    1
    16    10    15    1
