@<TRIPOS>MOLECULE
Cn1cnc2[nH]c(=O)ncc12
 17 18 0 0 0
SMALL
GASTEIGER
Energy = 0

@<TRIPOS>ATOM
      1 C           1.3196   -1.4283    0.0000 C.3     1  LIG1        0.0134
      2 N           1.0646   -0.6437    0.0000 N.ar    1  LIG1       -0.3308
      3 C           1.5495    0.0237    0.0000 C.ar    1  LIG1        0.0985
      4 N           1.0646    0.6912    0.0000 N.ar    1  LIG1       -0.2180
      5 C           0.2800    0.4362    0.0000 C.ar    1  LIG1        0.1616
      6 C           0.2800   -0.3888    0.0000 C.ar    1  LIG1        0.1041
      7 C          -0.4345   -0.8013    0.0000 C.ar    1  LIG1        0.0601
      8 N          -1.1489   -0.3888    0.0000 N.ar    1  LIG1       -0.1993
      9 C          -1.1489    0.4362    0.0000 C.ar    1  LIG1        0.3474
     10 O          -1.8634    0.8487    0.0000 O.2     1  LIG1       -0.2447
     11 N          -0.4345    0.8487    0.0000 N.ar    1  LIG1       -0.2893
     12 H           2.4592   -1.4581    0.0000 H       1  LIG1        0.0456
     13 H           0.9105   -1.9763   -0.9121 H       1  LIG1        0.0456
     14 H           0.9311   -1.9486    0.9370 H       1  LIG1        0.0456
     15 H           2.6510    0.0237    0.0000 H       1  LIG1        0.1029
     16 H          -0.4345   -1.9028    0.0000 H       1  LIG1        0.0853
     17 H          -0.4345    1.9312    0.0000 H       1  LIG1        0.1720
@<TRIPOS>BOND
     1     1     2    1
     2     2     3   ar
     3     3     4   ar
     4     4     5   ar
     5     5     6   ar
     6     2     6   ar
     7     6     7   ar
     8     7     8   ar
     9     8     9   ar
    10     9    10    2
    11     9    11   ar
    12     5    11   ar
    13     1    12    1
    14     1    13    1
    15     1    14    1
    16     3    15    1
    17     7    16    1
    18    11    17    1
