@<TRIPOS>MOLECULE
O=c1cc[nH]c2nc(=O)[nH]cc12
 17 18 0 0 0
SMALL
GASTEIGER
Energy = 0

@<TRIPOS>ATOM
      1 O           1.9808   -0.8929    0.0000 O.2     1  LIG1       -0.2447
      2 C           1.2663   -0.4804    0.0000 C.ar    1  LIG1        0.3477
      3 N           1.2663    0.3446    0.0000 N.ar    1  LIG1       -0.3122
      4 C           0.5518    0.7571    0.0000 C.ar    1  LIG1        0.0207
      5 C          -0.1627    0.3446    0.0000 C.ar    1  LIG1        0.0800
      6 C          -0.8771    0.7571    0.0000 C.ar    1  LIG1        0.1923
      7 O          -0.8771    1.5821    0.0000 O.2     1  LIG1       -0.2871
      8 C          -1.5916    0.3446    0.0000 C.ar    1  LIG1        0.0018
      9 C          -1.5916   -0.4804    0.0000 C.ar    1  LIG1        0.0071
     10 N          -0.8771   -0.8929    0.0000 N.ar    1  LIG1       -0.3455
     11 C          -0.1627   -0.4804    0.0000 C.ar    1  LIG1        0.1486
     12 N           0.5518   -0.8929    0.0000 N.ar    1  LIG1       -0.1752
     13 H           2.2038    0.8859    0.0000 H       1  LIG1        0.1699
     14 H           0.5518    1.8586    0.0000 H       1  LIG1        0.0817
     15 H          -2.5455    0.8954    0.0000 H       1  LIG1        0.0670
     16 H          -2.5455   -1.0312    0.0000 H       1  LIG1        0.0808
     17 H          -0.8771   -1.9754    0.0000 H       1  LIG1        0.1668
@<TRIPOS>BOND
     1     1     2    2
     2     2     3   ar
     3     3     4   ar
     4     4     5   ar
     5     5     6   ar
     6     6     7    2
     7     6     8   ar
     8     8     9   ar
     9     9    10   ar
    10    10    11   ar
    11     5    11   ar
    12    11    12   ar
    13     2    12   ar
    14     3    13    1
    15     4    14    1
    16     8    15    1
    17     9    16    1
    18    10    17    1
