@<TRIPOS>MOLECULE
O=c1nccc2ncccn12
 16 17 0 0 0
SMALL
GASTEIGER
Energy = 0

@<TRIPOS>ATOM
      1 O           0.6240   -1.4642    0.0000 O.2     1  LIG1       -0.2441
      2 C           0.6240   -0.6392    0.0000 C.ar    1  LIG1        0.3540
      3 N           1.3385   -0.2267    0.0000 N.ar    1  LIG1       -0.2009
      4 C           1.3385    0.5983    0.0000 C.ar    1  LIG1        0.0365
      5 C           0.6240    1.0108    0.0000 C.ar    1  LIG1       -0.0005
      6 C          -0.0905    0.5983    0.0000 C.ar    1  LIG1        0.1428
      7 N          -0.8050    1.0108    0.0000 N.ar    1  LIG1       -0.2373
      8 C          -1.5194    0.5983    0.0000 C.ar    1  LIG1        0.0313
      9 C          -1.5194   -0.2267    0.0000 C.ar    1  LIG1       -0.0268
     10 C          -0.8050   -0.6392    0.0000 C.ar    1  LIG1        0.0175
     11 N          -0.0905   -0.2267    0.0000 N.ar    1  LIG1       -0.2518
     12 H           2.2924    1.1491    0.0000 H       1  LIG1        0.0832
     13 H           0.6240    2.1123    0.0000 H       1  LIG1        0.0669
     14 H          -2.4733    1.1490    0.0000 H       1  LIG1        0.0831
     15 H          -2.4733   -0.7774    0.0000 H       1  LIG1        0.0647
     16 H          -0.8050   -1.7407    0.0000 H       1  LIG1        0.0815
@<TRIPOS>BOND
     1     1     2    2
     2     2     3   ar
     3     3     4   ar
     4     4     5   ar
     5     5     6   ar
     6     6     7   ar
     7     7     8   ar
     8     8     9   ar
     9     9    10   ar
    10    10    11   ar
    11     2    11   ar
    12     6    11   ar
    13     4    12    1
    14     5    13    1
    15     8    14    1
    16     9    15    1
    17    10    16    1
