@<TRIPOS>MOLECULE
O=c1ccc2ccoc2[nH]1
 15 16 0 0 0
SMALL
GASTEIGER
Energy = 0

@<TRIPOS>ATOM
      1 O          -1.7592    0.6904    0.0000 O.2     1  LIG1       -0.2678
      2 C          -1.0447    0.2779    0.0000 C.ar    1  LIG1        0.2513
      3 N          -0.3302    0.6904    0.0000 N.ar    1  LIG1       -0.2929
      4 C           0.3842    0.2779    0.0000 C.ar    1  LIG1        0.2081
      5 C           0.3842   -0.5471    0.0000 C.ar    1  LIG1        0.0381
      6 C           1.1689   -0.8020    0.0000 C.ar    1  LIG1       -0.0145
      7 C           1.6538   -0.1346    0.0000 C.ar    1  LIG1        0.0950
      8 O           1.1689    0.5328    0.0000 O.2     1  LIG1       -0.4467
      9 C          -0.3302   -0.9596    0.0000 C.ar    1  LIG1       -0.0443
     10 C          -1.0447   -0.5471    0.0000 C.ar    1  LIG1        0.0035
     11 H          -0.3302    1.7729    0.0000 H       1  LIG1        0.1718
     12 H           1.5093   -1.8496    0.0000 H       1  LIG1        0.0656
     13 H           2.7553   -0.1346    0.0000 H       1  LIG1        0.1030
     14 H          -0.3302   -2.0611    0.0000 H       1  LIG1        0.0627
     15 H          -1.9986   -1.0979    0.0000 H       1  LIG1        0.0672
@<TRIPOS>BOND
     1     1     2    2
     2     2     3   ar
     3     3     4   ar
     4     4     5   ar
     5     5     6   ar
     6     6     7   ar
     7     7     8   ar
     8     4     8   ar
     9     5     9   ar
    10     9    10   ar
    11     2    10   ar
    12     3    11    1
    13     6    12    1
    14     7    13    1
    15     9    14    1
    16    10    15    1
