@<TRIPOS>MOLECULE
c1cc2cnncn2c1
 14 15 0 0 0
SMALL
GASTEIGER
Energy = 0

@<TRIPOS>ATOM
      1 C           1.4720   -0.0072    0.0000 C.ar    1  LIG1       -0.0432
      2 C           0.9871    0.6602    0.0000 C.ar    1  LIG1        0.0113
      3 N           0.2025    0.4053    0.0000 N.ar    1  LIG1       -0.3044
      4 C          -0.5120    0.8178    0.0000 C.ar    1  LIG1        0.1230
      5 N          -1.2265    0.4053    0.0000 N.ar    1  LIG1       -0.1392
      6 N          -1.2265   -0.4197    0.0000 N.ar    1  LIG1       -0.1542
      7 C          -0.5120   -0.8322    0.0000 C.ar    1  LIG1        0.0738
      8 C           0.2025   -0.4197    0.0000 C.ar    1  LIG1        0.0673
      9 C           0.9871   -0.6747    0.0000 C.ar    1  LIG1       -0.0349
     10 H           2.5735   -0.0072    0.0000 H       1  LIG1        0.0633
     11 H           1.3275    1.7078    0.0000 H       1  LIG1        0.0813
     12 H          -0.5120    1.9193    0.0000 H       1  LIG1        0.1051
     13 H          -0.5120   -1.9337    0.0000 H       1  LIG1        0.0869
     14 H           1.3275   -1.7223    0.0000 H       1  LIG1        0.0639
@<TRIPOS>BOND
     1     1     2   ar
     2     2     3   ar
     3     3     4   ar
     4     4     5   ar
     5     5     6   ar
     6     6     7   ar
     7     7     8   ar
     8     3     8   ar
     9     8     9   ar
    10     1     9   ar
    11     1    10    1
    12     2    11    1
    13     4    12    1
    14     7    13    1
    15     9    14    1
