@<TRIPOS>MOLECULE
Cn1nnc2cncnc12
 15 16 0 0 0
SMALL
GASTEIGER
Energy = 0

@<TRIPOS>ATOM
      1 C           1.0666   -1.3117    0.0000 C.3     1  LIG1        0.0341
      2 N           0.8117   -0.5270    0.0000 N.ar    1  LIG1       -0.2297
      3 N           1.2966    0.1404    0.0000 N.ar    1  LIG1       -0.0634
      4 N           0.8117    0.8078    0.0000 N.ar    1  LIG1       -0.1263
      5 C           0.0270    0.5529    0.0000 C.ar    1  LIG1        0.1495
      6 C          -0.6874    0.9654    0.0000 C.ar    1  LIG1        0.0601
      7 N          -1.4019    0.5529    0.0000 N.ar    1  LIG1       -0.2414
      8 C          -1.4019   -0.2721    0.0000 C.ar    1  LIG1        0.1184
      9 N          -0.6874   -0.6846    0.0000 N.ar    1  LIG1       -0.2147
     10 C           0.0270   -0.2721    0.0000 C.ar    1  LIG1        0.1812
     11 H           2.2062   -1.3416    0.0000 H       1  LIG1        0.0474
     12 H           0.6574   -1.8596   -0.9121 H       1  LIG1        0.0474
     13 H           0.6781   -1.8319    0.9370 H       1  LIG1        0.0474
     14 H          -0.6874    2.0669    0.0000 H       1  LIG1        0.0853
     15 H          -2.3558   -0.8229    0.0000 H       1  LIG1        0.1047
@<TRIPOS>BOND
     1     1     2    1
     2     2     3   ar
     3     3     4   ar
     4     4     5   ar
     5     5     6   ar
     6     6     7   ar
     7     7     8   ar
     8     8     9   ar
     9     9    10   ar
    10     2    10   ar
    11     5    10   ar
    12     1    11    1
    13     1    12    1
    14     1    13    1
    15     6    14    1
    16     8    15    1
