@<TRIPOS>MOLECULE
Cn1ccc2c(=O)[nH][nH]c2c1=O
 19 20 0 0 0
SMALL
GASTEIGER
Energy = 0

@<TRIPOS>ATOM
      1 C          -1.9114   -0.7287    0.0000 C.3     1  LIG1        0.0148
      2 N          -1.1969   -0.3162    0.0000 N.ar    1  LIG1       -0.3165
      3 C          -1.1969    0.5088    0.0000 C.ar    1  LIG1        0.0084
      4 C          -0.4824    0.9213    0.0000 C.ar    1  LIG1       -0.0309
      5 C           0.2321    0.5088    0.0000 C.ar    1  LIG1        0.0719
      6 C           0.2321   -0.3162    0.0000 C.ar    1  LIG1        0.1322
      7 N           1.0167   -0.5711    0.0000 N.ar    1  LIG1       -0.2917
      8 N           1.5016    0.0963    0.0000 N.ar    1  LIG1       -0.2650
      9 C           1.0167    0.7638    0.0000 C.ar    1  LIG1        0.2724
     10 O           1.2716    1.5484    0.0000 O.2     1  LIG1       -0.2658
     11 C          -0.4824   -0.7287    0.0000 C.ar    1  LIG1        0.2766
     12 O          -0.4824   -1.5537    0.0000 O.2     1  LIG1       -0.2654
     13 H          -2.7782    0.0117    0.0000 H       1  LIG1        0.0457
     14 H          -1.9740   -1.4097    0.9121 H       1  LIG1        0.0457
     15 H          -1.9708   -1.3753   -0.9370 H       1  LIG1        0.0457
     16 H          -2.1508    1.0596    0.0000 H       1  LIG1        0.0810
     17 H          -0.4824    2.0228    0.0000 H       1  LIG1        0.0640
     18 H           1.3512   -1.6006    0.0000 H       1  LIG1        0.1870
     19 H           2.5841    0.0963    0.0000 H       1  LIG1        0.1899
@<TRIPOS>BOND
     1     1     2    1
     2     2     3   ar
     3     3     4   ar
     4     4     5   ar
     5     5     6   ar
     6     6     7   ar
     7     7     8   ar
     8     8     9   ar
     9     5     9   ar
    10     9    10    2
    11     6    11   ar
    12     2    11   ar
    13    11    12    2
    14     1    13    1
    15     1    14    1
    16     1    15    1
    17     3    16    1
    18     4    17    1
    19     7    18    1
    20     8    19    1
