@<TRIPOS>MOLECULE
O=c1cc2[nH]ccc(=O)n2[nH]1
 16 17 0 0 0
SMALL
GASTEIGER
Energy = 0

@<TRIPOS>ATOM
      1 O           2.0615   -0.1842    0.0000 O.2     1  LIG1       -0.2664
      2 C           1.2365   -0.1842    0.0000 C.ar    1  LIG1        0.2671
      3 N           0.7516    0.4832    0.0000 N.ar    1  LIG1       -0.2547
      4 N          -0.0331    0.2283    0.0000 N.ar    1  LIG1       -0.2001
      5 C          -0.7475    0.6408    0.0000 C.ar    1  LIG1        0.2729
      6 O          -0.7475    1.4658    0.0000 O.2     1  LIG1       -0.2658
      7 C          -1.4620    0.2283    0.0000 C.ar    1  LIG1        0.0207
      8 C          -1.4620   -0.5967    0.0000 C.ar    1  LIG1        0.0086
      9 N          -0.7475   -1.0092    0.0000 N.ar    1  LIG1       -0.3459
     10 C          -0.0331   -0.5967    0.0000 C.ar    1  LIG1        0.1394
     11 C           0.7516   -0.8516    0.0000 C.ar    1  LIG1        0.0464
     12 H           1.0861    1.5127    0.0000 H       1  LIG1        0.1907
     13 H          -2.4159    0.7791    0.0000 H       1  LIG1        0.0687
     14 H          -2.4159   -1.1475    0.0000 H       1  LIG1        0.0809
     15 H          -0.7475   -2.0917    0.0000 H       1  LIG1        0.1667
     16 H           1.0920   -1.8992    0.0000 H       1  LIG1        0.0709
@<TRIPOS>BOND
     1     1     2    2
     2     2     3   ar
     3     3     4   ar
     4     4     5   ar
     5     5     6    2
     6     5     7   ar
     7     7     8   ar
     8     8     9   ar
     9     9    10   ar
    10     4    10   ar
    11    10    11   ar
    12     2    11   ar
    13     3    12    1
    14     7    13    1
    15     8    14    1
    16     9    15    1
    17    11    16    1
