@<TRIPOS>MOLECULE
O=c1ncc2nncn2[nH]1
 13 14 0 0 0
SMALL
GASTEIGER
Energy = 0

@<TRIPOS>ATOM
      1 O           1.7566    0.7242    0.0000 O.2     1  LIG1       -0.2432
      2 C           1.0421    0.3117    0.0000 C.ar    1  LIG1        0.3609
      3 N           0.3276    0.7242    0.0000 N.ar    1  LIG1       -0.2400
      4 N          -0.3868    0.3117    0.0000 N.ar    1  LIG1       -0.2176
      5 C          -1.1714    0.5666    0.0000 C.ar    1  LIG1        0.1402
      6 N          -1.6564   -0.1008    0.0000 N.ar    1  LIG1       -0.1357
      7 N          -1.1714   -0.7682    0.0000 N.ar    1  LIG1       -0.1267
      8 C          -0.3868   -0.5133    0.0000 C.ar    1  LIG1        0.1941
      9 C           0.3276   -0.9258    0.0000 C.ar    1  LIG1        0.0789
     10 N           1.0421   -0.5133    0.0000 N.ar    1  LIG1       -0.1967
     11 H           0.3276    1.8067    0.0000 H       1  LIG1        0.1922
     12 H          -1.5117    1.6142    0.0000 H       1  LIG1        0.1066
     13 H           0.3276   -2.0273    0.0000 H       1  LIG1        0.0870
@<TRIPOS>BOND
     1     1     2    2
     2     2     3   ar
     3     3     4   ar
     4     4     5   ar
     5     5     6   ar
     6     6     7   ar
     7     7     8   ar
     8     4     8   ar
     9     8     9   ar
    10     9    10   ar
    11     2    10   ar
    12     3    11    1
    13     5    12    1
    14     9    13    1
