@<TRIPOS>MOLECULE
c1cnc2cnncc2c1
 15 16 0 0 0
SMALL
GASTEIGER
Energy = 0

@<TRIPOS>ATOM
      1 C           1.4629   -0.4256    0.0000 C.ar    1  LIG1       -0.0429
      2 C           1.4629    0.3994    0.0000 C.ar    1  LIG1        0.0283
      3 N           0.7484    0.8119    0.0000 N.ar    1  LIG1       -0.2533
      4 C           0.0339    0.3994    0.0000 C.ar    1  LIG1        0.0922
      5 C          -0.6805    0.8119    0.0000 C.ar    1  LIG1        0.0758
      6 N          -1.3950    0.3994    0.0000 N.ar    1  LIG1       -0.1555
      7 N          -1.3950   -0.4256    0.0000 N.ar    1  LIG1       -0.1570
      8 C          -0.6805   -0.8381    0.0000 C.ar    1  LIG1        0.0591
      9 C           0.0339   -0.4256    0.0000 C.ar    1  LIG1        0.0217
     10 C           0.7484   -0.8381    0.0000 C.ar    1  LIG1       -0.0496
     11 H           2.4168   -0.9764    0.0000 H       1  LIG1        0.0633
     12 H           2.4168    0.9502    0.0000 H       1  LIG1        0.0830
     13 H          -0.6805    1.9134    0.0000 H       1  LIG1        0.0870
     14 H          -0.6805   -1.9396    0.0000 H       1  LIG1        0.0855
     15 H           0.7484   -1.9396    0.0000 H       1  LIG1        0.0625
@<TRIPOS>BOND
     1     1     2   ar
     2     2     3   ar
     3     3     4   ar
     4     4     5   ar
     5     5     6   ar
     6     6     7   ar
     7     7     8   ar
     8     8     9   ar
     9     4     9   ar
    10     9    10   ar
    11     1    10   ar
    12     1    11    1
    13     2    12    1
    14     5    13    1
    15     8    14    1
    16    10    15    1
