@<TRIPOS>MOLECULE
c1cc2cncnn2c1
 14 15 0 0 0
SMALL
GASTEIGER
Energy = 0

@<TRIPOS>ATOM
      1 C           1.4595   -0.0144    0.0000 C.ar    1  LIG1       -0.0415
      2 C           0.9746    0.6530    0.0000 C.ar    1  LIG1        0.0299
      3 N           0.1899    0.3981    0.0000 N.ar    1  LIG1       -0.2370
      4 N          -0.5245    0.8106    0.0000 N.ar    1  LIG1       -0.1550
      5 C          -1.2390    0.3981    0.0000 C.ar    1  LIG1        0.1366
      6 N          -1.2390   -0.4269    0.0000 N.ar    1  LIG1       -0.2399
      7 C          -0.5245   -0.8394    0.0000 C.ar    1  LIG1        0.0548
      8 C           0.1899   -0.4269    0.0000 C.ar    1  LIG1        0.0835
      9 C           0.9746   -0.6819    0.0000 C.ar    1  LIG1       -0.0334
     10 H           2.5610   -0.0144    0.0000 H       1  LIG1        0.0633
     11 H           1.3150    1.7006    0.0000 H       1  LIG1        0.0830
     12 H          -2.1929    0.9489    0.0000 H       1  LIG1        0.1065
     13 H          -0.5245   -1.9409    0.0000 H       1  LIG1        0.0852
     14 H           1.3150   -1.7295    0.0000 H       1  LIG1        0.0640
@<TRIPOS>BOND
     1     1     2   ar
     2     2     3   ar
     3     3     4   ar
     4     4     5   ar
     5     5     6   ar
     6     6     7   ar
     7     7     8   ar
     8     3     8   ar
     9     8     9   ar
    10     1     9   ar
    11     1    10    1
    12     2    11    1
    13     5    12    1
    14     7    13    1
    15     9    14    1
