@<TRIPOS>MOLECULE
O=c1[nH]ncn2cccc12
 15 16 0 0 0
SMALL
GASTEIGER
Energy = 0

@<TRIPOS>ATOM
      1 O           0.4490   -1.4534    0.0000 O.2     1  LIG1       -0.2642
      2 C           0.4490   -0.6284    0.0000 C.ar    1  LIG1        0.2887
      3 N           1.1635   -0.2159    0.0000 N.ar    1  LIG1       -0.2402
      4 N           1.1635    0.6091    0.0000 N.ar    1  LIG1       -0.1609
      5 C           0.4490    1.0216    0.0000 C.ar    1  LIG1        0.1209
      6 N          -0.2654    0.6091    0.0000 N.ar    1  LIG1       -0.3012
      7 C          -1.0500    0.8640    0.0000 C.ar    1  LIG1        0.0114
      8 C          -1.5350    0.1966    0.0000 C.ar    1  LIG1       -0.0430
      9 C          -1.0500   -0.4708    0.0000 C.ar    1  LIG1       -0.0311
     10 C          -0.2654   -0.2159    0.0000 C.ar    1  LIG1        0.1136
     11 H           2.1010   -0.7572    0.0000 H       1  LIG1        0.1922
     12 H           0.4490    2.1231    0.0000 H       1  LIG1        0.1050
     13 H          -1.3903    1.9116    0.0000 H       1  LIG1        0.0813
     14 H          -2.6365    0.1966    0.0000 H       1  LIG1        0.0633
     15 H          -1.3903   -1.5184    0.0000 H       1  LIG1        0.0640
@<TRIPOS>BOND
     1     1     2    2
     2     2     3   ar
     3     3     4   ar
     4     4     5   ar
     5     5     6   ar
     6     6     7   ar
     7     7     8   ar
     8     8     9   ar
     9     9    10   ar
    10     2    10   ar
    11     6    10   ar
    12     3    11    1
    13     5    12    1
    14     7    13    1
    15     8    14    1
    16     9    15    1
