@<TRIPOS>MOLECULE
Cn1ncc2cnccc2c1=O
 19 20 0 0 0
SMALL
GASTEIGER
Energy = 0

@<TRIPOS>ATOM
      1 C           1.8837   -0.5947    0.0000 C.3     1  LIG1        0.0340
      2 N           1.1692   -0.1822    0.0000 N.ar    1  LIG1       -0.2321
      3 N           1.1692    0.6428    0.0000 N.ar    1  LIG1       -0.1762
      4 C           0.4547    1.0553    0.0000 C.ar    1  LIG1        0.0574
      5 C          -0.2597    0.6428    0.0000 C.ar    1  LIG1        0.0252
      6 C          -0.9742    1.0553    0.0000 C.ar    1  LIG1        0.0369
      7 N          -1.6887    0.6428    0.0000 N.ar    1  LIG1       -0.2626
      8 C          -1.6887   -0.1822    0.0000 C.ar    1  LIG1        0.0283
      9 C          -0.9742   -0.5947    0.0000 C.ar    1  LIG1       -0.0306
     10 C          -0.2597   -0.1822    0.0000 C.ar    1  LIG1        0.0524
     11 C           0.4547   -0.5947    0.0000 C.ar    1  LIG1        0.2748
     12 O           0.4547   -1.4197    0.0000 O.2     1  LIG1       -0.2656
     13 H           2.7505    0.1457    0.0000 H       1  LIG1        0.0474
     14 H           1.9463   -1.2757   -0.9121 H       1  LIG1        0.0474
     15 H           1.9431   -1.2413    0.9370 H       1  LIG1        0.0474
     16 H           0.4547    2.1568    0.0000 H       1  LIG1        0.0854
     17 H          -0.9742    2.1568    0.0000 H       1  LIG1        0.0836
     18 H          -2.6426   -0.7330    0.0000 H       1  LIG1        0.0830
     19 H          -0.9742   -1.6962    0.0000 H       1  LIG1        0.0640
@<TRIPOS>BOND
     1     1     2    1
     2     2     3   ar
     3     3     4   ar
     4     4     5   ar
     5     5     6   ar
     6     6     7   ar
     7     7     8   ar
     8     8     9   ar
     9     9    10   ar
    10     5    10   ar
    11    10    11   ar
    12     2    11   ar
    13    11    12    2
    14     1    13    1
    15     1    14    1
    16     1    15    1
    17     4    16    1
    18     6    17    1
    19     8    18    1
    20     9    19    1
