@<TRIPOS>MOLECULE
Cn1cc2cn[nH]c(=O)c2c1
 18 19 0 0 0
SMALL
GASTEIGER
Energy = 0

@<TRIPOS>ATOM
      1 C           2.1427    0.1858    0.0000 C.3     1  LIG1        0.0114
      2 N           1.3177    0.1858    0.0000 N.ar    1  LIG1       -0.3549
      3 C           0.8327    0.8532    0.0000 C.ar    1  LIG1        0.0137
      4 C           0.0481    0.5983    0.0000 C.ar    1  LIG1        0.0246
      5 C          -0.6664    1.0108    0.0000 C.ar    1  LIG1        0.0571
      6 N          -1.3808    0.5983    0.0000 N.ar    1  LIG1       -0.1787
      7 N          -1.3808   -0.2267    0.0000 N.ar    1  LIG1       -0.2427
      8 C          -0.6664   -0.6392    0.0000 C.ar    1  LIG1        0.2739
      9 O          -0.6664   -1.4642    0.0000 O.2     1  LIG1       -0.2657
     10 C           0.0481   -0.2267    0.0000 C.ar    1  LIG1        0.0667
     11 C           0.8327   -0.4817    0.0000 C.ar    1  LIG1        0.0173
     12 H           2.5232    1.2604    0.0000 H       1  LIG1        0.0455
     13 H           2.5374   -0.3727   -0.9121 H       1  LIG1        0.0455
     14 H           2.5174   -0.3444    0.9370 H       1  LIG1        0.0455
     15 H           1.1730    1.9008    0.0000 H       1  LIG1        0.0815
     16 H          -0.6664    2.1123    0.0000 H       1  LIG1        0.0854
     17 H          -2.3183   -0.7679    0.0000 H       1  LIG1        0.1921
     18 H           1.1730   -1.5293    0.0000 H       1  LIG1        0.0817
@<TRIPOS>BOND
     1     1     2    1
     2     2     3   ar
     3     3     4   ar
     4     4     5   ar
     5     5     6   ar
     6     6     7   ar
     7     7     8   ar
     8     8     9    2
     9     8    10   ar
    10     4    10   ar
    11    10    11   ar
    12     2    11   ar
    13     1    12    1
    14     1    13    1
    15     1    14    1
    16     3    15    1
    17     5    16    1
    18     7    17    1
    19    11    18    1
