@<TRIPOS>MOLECULE
c1nc2c[nH]cc2[nH]1
 13 14 0 0 0
SMALL
GASTEIGER
Energy = 0

@<TRIPOS>ATOM
      1 N           1.2754    0.0000    0.0000 N.ar    1  LIG1       -0.3635
      2 C           0.7905    0.6674    0.0000 C.ar    1  LIG1        0.0274
      3 C           0.0059    0.4125    0.0000 C.ar    1  LIG1        0.0836
      4 N          -0.7788    0.6674    0.0000 N.ar    1  LIG1       -0.3432
      5 C          -1.2637    0.0000    0.0000 C.ar    1  LIG1        0.0945
      6 N          -0.7788   -0.6674    0.0000 N.ar    1  LIG1       -0.2344
      7 C           0.0059   -0.4125    0.0000 C.ar    1  LIG1        0.1060
      8 C           0.7905   -0.6674    0.0000 C.ar    1  LIG1        0.0295
      9 H           2.3579    0.0000    0.0000 H       1  LIG1        0.1649
     10 H           1.1309    1.7150    0.0000 H       1  LIG1        0.0828
     11 H          -1.1133    1.6969    0.0000 H       1  LIG1        0.1668
     12 H          -2.3652    0.0000    0.0000 H       1  LIG1        0.1027
     13 H           1.1309   -1.7150    0.0000 H       1  LIG1        0.0829
@<TRIPOS>BOND
     1     1     2   ar
     2     2     3   ar
     3     3     4   ar
     4     4     5   ar
     5     5     6   ar
     6     6     7   ar
     7     3     7   ar
     8     7     8   ar
     9     1     8   ar
    10     1     9    1
    11     2    10    1
    12     4    11    1
    13     5    12    1
    14     8    13    1
