@<TRIPOS>MOLECULE
O=c1ncn2cnc(=O)n12
 12 13 0 0 0
SMALL
GASTEIGER
Energy = 0

@<TRIPOS>ATOM
      1 O           1.0396   -1.1106    0.0000 O.2     1  LIG1       -0.2424
      2 C           0.7846   -0.3260    0.0000 C.ar    1  LIG1        0.3733
      3 N           1.2695    0.3415    0.0000 N.ar    1  LIG1       -0.1799
      4 C           0.7846    1.0089    0.0000 C.ar    1  LIG1        0.1233
      5 N          -0.0000    0.7540    0.0000 N.ar    1  LIG1       -0.2181
      6 C          -0.7846    1.0089    0.0000 C.ar    1  LIG1        0.1233
      7 N          -1.2695    0.3415    0.0000 N.ar    1  LIG1       -0.1799
      8 C          -0.7846   -0.3260    0.0000 C.ar    1  LIG1        0.3733
      9 O          -1.0396   -1.1106    0.0000 O.2     1  LIG1       -0.2424
     10 N          -0.0000   -0.0710    0.0000 N.ar    1  LIG1       -0.1402
     11 H           1.1250    2.0565    0.0000 H       1  LIG1        0.1049
     12 H          -1.1250    2.0565    0.0000 H       1  LIG1        0.1049
@<TRIPOS>BOND
     1     1     2    2
     2     2     3   ar
     3     3     4   ar
     4     4     5   ar
     5     5     6   ar
     6     6     7   ar
     7     7     8   ar
     8     8     9    2
     9     8    10   ar
    10     2    10   ar
    11     5    10   ar
    12     4    11    1
    13     6    12    1
