@<TRIPOS>MOLECULE
c1cnc2ncnnc2c1
 14 15 0 0 0
SMALL
GASTEIGER
Energy = 0

@<TRIPOS>ATOM
      1 C           1.4623   -0.4189    0.0000 C.ar    1  LIG1       -0.0414
      2 C           1.4623    0.4061    0.0000 C.ar    1  LIG1        0.0301
      3 N           0.7479    0.8186    0.0000 N.ar    1  LIG1       -0.2343
      4 C           0.0334    0.4061    0.0000 C.ar    1  LIG1        0.1816
      5 N          -0.6811    0.8186    0.0000 N.ar    1  LIG1       -0.2127
      6 C          -1.3955    0.4061    0.0000 C.ar    1  LIG1        0.1406
      7 N          -1.3955   -0.4189    0.0000 N.ar    1  LIG1       -0.1371
      8 N          -0.6811   -0.8314    0.0000 N.ar    1  LIG1       -0.1447
      9 C           0.0334   -0.4189    0.0000 C.ar    1  LIG1        0.1302
     10 C           0.7479   -0.8314    0.0000 C.ar    1  LIG1       -0.0295
     11 H           2.4162   -0.9696    0.0000 H       1  LIG1        0.0633
     12 H           2.4162    0.9568    0.0000 H       1  LIG1        0.0830
     13 H          -2.3494    0.9568    0.0000 H       1  LIG1        0.1066
     14 H           0.7479   -1.9329    0.0000 H       1  LIG1        0.0641
@<TRIPOS>BOND
     1     1     2   ar
     2     2     3   ar
     3     3     4   ar
     4     4     5   ar
     5     5     6   ar
     6     6     7   ar
     7     7     8   ar
     8     8     9   ar
     9     4     9   ar
    10     9    10   ar
    11     1    10   ar
    12     1    11    1
    13     2    12    1
    14     6    13    1
    15    10    14    1
