@<TRIPOS>MOLECULE
O=c1[nH][nH]c2ccnnc12
 14 15 0 0 0
SMALL
GASTEIGER
Energy = 0

@<TRIPOS>ATOM
      1 O           1.0467   -1.2676    0.0000 O.2     1  LIG1       -0.2640
      2 C           0.7917   -0.4829    0.0000 C.ar    1  LIG1        0.2924
      3 N           1.2766    0.1845    0.0000 N.ar    1  LIG1       -0.2638
      4 N           0.7917    0.8519    0.0000 N.ar    1  LIG1       -0.2949
      5 C           0.0071    0.5970    0.0000 C.ar    1  LIG1        0.0891
      6 C          -0.7074    1.0095    0.0000 C.ar    1  LIG1       -0.0148
      7 C          -1.4218    0.5970    0.0000 C.ar    1  LIG1        0.0520
      8 N          -1.4218   -0.2280    0.0000 N.ar    1  LIG1       -0.1568
      9 N          -0.7074   -0.6405    0.0000 N.ar    1  LIG1       -0.1422
     10 C           0.0071   -0.2280    0.0000 C.ar    1  LIG1        0.1760
     11 H           2.3591    0.1845    0.0000 H       1  LIG1        0.1900
     12 H           1.1262    1.8814    0.0000 H       1  LIG1        0.1869
     13 H          -0.7074    2.1110    0.0000 H       1  LIG1        0.0655
     14 H          -2.3757    1.1477    0.0000 H       1  LIG1        0.0848
@<TRIPOS>BOND
     1     1     2    2
     2     2     3   ar
     3     3     4   ar
     4     4     5   ar
     5     5     6   ar
     6     6     7   ar
     7     7     8   ar
     8     8     9   ar
     9     9    10   ar
    10     2    10   ar
    11     5    10   ar
    12     3    11    1
    13     4    12    1
    14     6    13    1
    15     7    14    1
