@<TRIPOS>MOLECULE
O=c1nc[nH]c2cncn12
 14 15 0 0 0
SMALL
GASTEIGER
Energy = 0

@<TRIPOS>ATOM
      1 O           0.4830   -1.4501    0.0000 O.2     1  LIG1       -0.2440
      2 C           0.4830   -0.6251    0.0000 C.ar    1  LIG1        0.3565
      3 N           1.1975   -0.2126    0.0000 N.ar    1  LIG1       -0.1831
      4 C           1.1975    0.6124    0.0000 C.ar    1  LIG1        0.1002
      5 N           0.4830    1.0249    0.0000 N.ar    1  LIG1       -0.3306
      6 C          -0.2314    0.6124    0.0000 C.ar    1  LIG1        0.1400
      7 C          -1.0161    0.8673    0.0000 C.ar    1  LIG1        0.0703
      8 N          -1.5010    0.1999    0.0000 N.ar    1  LIG1       -0.2414
      9 C          -1.0161   -0.4676    0.0000 C.ar    1  LIG1        0.1061
     10 N          -0.2314   -0.2126    0.0000 N.ar    1  LIG1       -0.2352
     11 H           2.1514    1.1632    0.0000 H       1  LIG1        0.1029
     12 H           0.4830    2.1074    0.0000 H       1  LIG1        0.1682
     13 H          -1.3565    1.9149    0.0000 H       1  LIG1        0.0867
     14 H          -1.3565   -1.5152    0.0000 H       1  LIG1        0.1034
@<TRIPOS>BOND
     1     1     2    2
     2     2     3   ar
     3     3     4   ar
     4     4     5   ar
     5     5     6   ar
     6     6     7   ar
     7     7     8   ar
     8     8     9   ar
     9     9    10   ar
    10     2    10   ar
    11     6    10   ar
    12     4    11    1
    13     5    12    1
    14     7    13    1
    15     9    14    1
