@<TRIPOS>MOLECULE
Cn1[nH]c(=O)c2nccnc12
 17 18 0 0 0
SMALL
GASTEIGER
Energy = 0

@<TRIPOS>ATOM
      1 C           0.9495   -1.4830    0.0000 C.3     1  LIG1        0.0305
      2 N           0.6946   -0.6984    0.0000 N.ar    1  LIG1       -0.2682
      3 N           1.1795   -0.0309    0.0000 N.ar    1  LIG1       -0.2603
      4 C           0.6946    0.6365    0.0000 C.ar    1  LIG1        0.2923
      5 O           0.9495    1.4211    0.0000 O.2     1  LIG1       -0.2640
      6 C          -0.0900    0.3816    0.0000 C.ar    1  LIG1        0.1729
      7 N          -0.8045    0.7941    0.0000 N.ar    1  LIG1       -0.2450
      8 C          -1.5190    0.3816    0.0000 C.ar    1  LIG1        0.0467
      9 C          -1.5190   -0.4434    0.0000 C.ar    1  LIG1        0.0481
     10 N          -0.8045   -0.8559    0.0000 N.ar    1  LIG1       -0.2331
     11 C          -0.0900   -0.4434    0.0000 C.ar    1  LIG1        0.1790
     12 H           2.0891   -1.5129    0.0000 H       1  LIG1        0.0473
     13 H           0.5403   -2.0309   -0.9121 H       1  LIG1        0.0473
     14 H           0.5610   -2.0032    0.9370 H       1  LIG1        0.0473
     15 H           2.2620   -0.0309    0.0000 H       1  LIG1        0.1902
     16 H          -2.4729    0.9324    0.0000 H       1  LIG1        0.0845
     17 H          -2.4729   -0.9942    0.0000 H       1  LIG1        0.0846
@<TRIPOS>BOND
     1     1     2    1
     2     2     3   ar
     3     3     4   ar
     4     4     5    2
     5     4     6   ar
     6     6     7   ar
     7     7     8   ar
     8     8     9   ar
     9     9    10   ar
    10    10    11   ar
    11     2    11   ar
    12     6    11   ar
    13     1    12    1
    14     1    13    1
    15     1    14    1
    16     3    15    1
    17     8    16    1
    18     9    17    1
