@<TRIPOS>MOLECULE
O=c1[nH][nH]c2cccnc12
 15 16 0 0 0
SMALL
GASTEIGER
Energy = 0

@<TRIPOS>ATOM
      1 O           1.0248   -1.2710    0.0000 O.2     1  LIG1       -0.2641
      2 C           0.7699   -0.4864    0.0000 C.ar    1  LIG1        0.2906
      3 N           1.2548    0.1810    0.0000 N.ar    1  LIG1       -0.2638
      4 N           0.7699    0.8484    0.0000 N.ar    1  LIG1       -0.2950
      5 C          -0.0147    0.5935    0.0000 C.ar    1  LIG1        0.0858
      6 C          -0.7292    1.0060    0.0000 C.ar    1  LIG1       -0.0333
      7 C          -1.4437    0.5935    0.0000 C.ar    1  LIG1       -0.0416
      8 C          -1.4437   -0.2315    0.0000 C.ar    1  LIG1        0.0286
      9 N          -0.7292   -0.6440    0.0000 N.ar    1  LIG1       -0.2480
     10 C          -0.0147   -0.2315    0.0000 C.ar    1  LIG1        0.1538
     11 H           2.3373    0.1810    0.0000 H       1  LIG1        0.1900
     12 H           1.1044    1.8779    0.0000 H       1  LIG1        0.1869
     13 H          -0.7292    2.1075    0.0000 H       1  LIG1        0.0640
     14 H          -2.3976    1.1443    0.0000 H       1  LIG1        0.0633
     15 H          -2.3976   -0.7823    0.0000 H       1  LIG1        0.0830
@<TRIPOS>BOND
     1     1     2    2
     2     2     3   ar
     3     3     4   ar
     4     4     5   ar
     5     5     6   ar
     6     6     7   ar
     7     7     8   ar
     8     8     9   ar
     9     9    10   ar
    10     2    10   ar
    11     5    10   ar
    12     3    11    1
    13     4    12    1
    14     6    13    1
    15     7    14    1
    16     8    15    1
