@<TRIPOS>MOLECULE
Cn1c(=O)nnc2ccccc12
 19 20 0 0 0
SMALL
GASTEIGER
Energy = 0

@<TRIPOS>ATOM
      1 C           0.3992   -1.4411    0.0000 C.3     1  LIG1        0.0168
      2 N           0.3992   -0.6161    0.0000 N.ar    1  LIG1       -0.2924
      3 C           1.1137   -0.2036    0.0000 C.ar    1  LIG1        0.3670
      4 O           1.8282   -0.6161    0.0000 O.2     1  LIG1       -0.2429
      5 N           1.1137    0.6214    0.0000 N.ar    1  LIG1       -0.0896
      6 N           0.3992    1.0339    0.0000 N.ar    1  LIG1       -0.1429
      7 C          -0.3152    0.6214    0.0000 C.ar    1  LIG1        0.1098
      8 C          -1.0297    1.0339    0.0000 C.ar    1  LIG1       -0.0325
      9 C          -1.7442    0.6214    0.0000 C.ar    1  LIG1       -0.0596
     10 C          -1.7442   -0.2036    0.0000 C.ar    1  LIG1       -0.0597
     11 C          -1.0297   -0.6161    0.0000 C.ar    1  LIG1       -0.0359
     12 C          -0.3152   -0.2036    0.0000 C.ar    1  LIG1        0.0731
     13 H           1.4738   -1.8216    0.0000 H       1  LIG1        0.0457
     14 H          -0.1593   -1.8358   -0.9121 H       1  LIG1        0.0457
     15 H          -0.1310   -1.8158    0.9370 H       1  LIG1        0.0457
     16 H          -1.0297    2.1354    0.0000 H       1  LIG1        0.0640
     17 H          -2.6981    1.1722    0.0000 H       1  LIG1        0.0618
     18 H          -2.6981   -0.7544    0.0000 H       1  LIG1        0.0618
     19 H          -1.0297   -1.7176    0.0000 H       1  LIG1        0.0639
@<TRIPOS>BOND
     1     1     2    1
     2     2     3   ar
     3     3     4    2
     4     3     5   ar
     5     5     6   ar
     6     6     7   ar
     7     7     8   ar
     8     8     9   ar
     9     9    10   ar
    10    10    11   ar
    11    11    12   ar
    12     2    12   ar
    13     7    12   ar
    14     1    13    1
    15     1    14    1
    16     1    15    1
    17     8    16    1
    18     9    17    1
    19    10    18    1
    20    11    19    1
