@<TRIPOS>MOLECULE
O=c1ccnc2sncn12
 13 14 0 0 0
SMALL
GASTEIGER
Energy = 0

@<TRIPOS>ATOM
      1 O           0.6347   -1.5688    0.0000 O.2     1  LIG1       -0.2672
      2 C           0.6347   -0.7438    0.0000 C.ar    1  LIG1        0.2599
      3 C           1.3492   -0.3313    0.0000 C.ar    1  LIG1        0.0215
      4 C           1.3492    0.4937    0.0000 C.ar    1  LIG1        0.0356
      5 N           0.6347    0.9062    0.0000 N.ar    1  LIG1       -0.2297
      6 C          -0.0798    0.4937    0.0000 C.ar    1  LIG1        0.1993
      7 S          -0.8644    0.7486    0.0000 S.2     1  LIG1        0.0518
      8 N          -1.3493    0.0812    0.0000 N.ar    1  LIG1       -0.1970
      9 C          -0.8644   -0.5862    0.0000 C.ar    1  LIG1        0.1136
     10 N          -0.0798   -0.3313    0.0000 N.ar    1  LIG1       -0.2438
     11 H           2.3031   -0.8821    0.0000 H       1  LIG1        0.0687
     12 H           2.3031    1.0445    0.0000 H       1  LIG1        0.0832
     13 H          -1.2048   -1.6338    0.0000 H       1  LIG1        0.1041
@<TRIPOS>BOND
     1     1     2    2
     2     2     3   ar
     3     3     4   ar
     4     4     5   ar
     5     5     6   ar
     6     6     7   ar
     7     7     8   ar
     8     8     9   ar
     9     9    10   ar
    10     2    10   ar
    11     6    10   ar
    12     3    11    1
    13     4    12    1
    14     9    13    1
