@<TRIPOS>MOLECULE
O=c1nc2[nH]cccc2o1
 14 15 0 0 0
SMALL
GASTEIGER
Energy = 0

@<TRIPOS>ATOM
      1 O           1.9477    0.0024    0.0000 O.2     1  LIG1       -0.2207
      2 C           1.1227    0.0024    0.0000 C.ar    1  LIG1        0.4422
      3 O           0.6378    0.6698    0.0000 O.2     1  LIG1       -0.4046
      4 C          -0.1468    0.4149    0.0000 C.ar    1  LIG1        0.1758
      5 C          -0.8613    0.8274    0.0000 C.ar    1  LIG1       -0.0141
      6 C          -1.5757    0.4149    0.0000 C.ar    1  LIG1       -0.0421
      7 C          -1.5757   -0.4101    0.0000 C.ar    1  LIG1        0.0037
      8 N          -0.8613   -0.8226    0.0000 N.ar    1  LIG1       -0.3432
      9 C          -0.1468   -0.4101    0.0000 C.ar    1  LIG1        0.1808
     10 N           0.6378   -0.6650    0.0000 N.ar    1  LIG1       -0.1541
     11 H          -0.8613    1.9289    0.0000 H       1  LIG1        0.0656
     12 H          -2.5296    0.9656    0.0000 H       1  LIG1        0.0633
     13 H          -2.5296   -0.9608    0.0000 H       1  LIG1        0.0807
     14 H          -0.8613   -1.9051    0.0000 H       1  LIG1        0.1669
@<TRIPOS>BOND
     1     1     2    2
     2     2     3   ar
     3     3     4   ar
     4     4     5   ar
     5     5     6   ar
     6     6     7   ar
     7     7     8   ar
     8     8     9   ar
     9     4     9   ar
    10     9    10   ar
    11     2    10   ar
    12     5    11    1
    13     6    12    1
    14     7    13    1
    15     8    14    1
