@<TRIPOS>MOLECULE
c1cn2cccnc2n1
 14 15 0 0 0
SMALL
GASTEIGER
Energy = 0

@<TRIPOS>ATOM
      1 C           1.2777    0.4314    0.0000 C.ar    1  LIG1       -0.0269
      2 C           0.5633    0.8439    0.0000 C.ar    1  LIG1        0.0140
      3 N          -0.1512    0.4314    0.0000 N.ar    1  LIG1       -0.2909
      4 C          -0.9358    0.6863    0.0000 C.ar    1  LIG1        0.0307
      5 C          -1.4208    0.0189    0.0000 C.ar    1  LIG1        0.0479
      6 N          -0.9358   -0.6485    0.0000 N.ar    1  LIG1       -0.2188
      7 C          -0.1512   -0.3936    0.0000 C.ar    1  LIG1        0.2347
      8 N           0.5633   -0.8061    0.0000 N.ar    1  LIG1       -0.2202
      9 C           1.2777   -0.3936    0.0000 C.ar    1  LIG1        0.0328
     10 H           2.2316    0.9821    0.0000 H       1  LIG1        0.0647
     11 H           0.5633    1.9454    0.0000 H       1  LIG1        0.0814
     12 H          -1.2761    1.7339    0.0000 H       1  LIG1        0.0829
     13 H          -2.5223    0.0189    0.0000 H       1  LIG1        0.0846
     14 H           2.2316   -0.9443    0.0000 H       1  LIG1        0.0831
@<TRIPOS>BOND
     1     1     2   ar
     2     2     3   ar
     3     3     4   ar
     4     4     5   ar
     5     5     6   ar
     6     6     7   ar
     7     3     7   ar
     8     7     8   ar
     9     8     9   ar
    10     1     9   ar
    11     1    10    1
    12     2    11    1
    13     4    12    1
    14     5    13    1
    15     9    14    1
