@<TRIPOS>MOLECULE
Cn1cccc2ncnc12
 17 18 0 0 0
SMALL
GASTEIGER
Energy = 0

@<TRIPOS>ATOM
      1 C           0.5220   -1.4798    0.0000 C.3     1  LIG1        0.0133
      2 N           0.5220   -0.6548    0.0000 N.ar    1  LIG1       -0.3337
      3 C           1.2365   -0.2423    0.0000 C.ar    1  LIG1        0.0062
      4 C           1.2365    0.5827    0.0000 C.ar    1  LIG1       -0.0434
      5 C           0.5220    0.9952    0.0000 C.ar    1  LIG1       -0.0313
      6 C          -0.1925    0.5827    0.0000 C.ar    1  LIG1        0.1080
      7 N          -0.9771    0.8377    0.0000 N.ar    1  LIG1       -0.2323
      8 C          -1.4620    0.1702    0.0000 C.ar    1  LIG1        0.1191
      9 N          -0.9771   -0.4972    0.0000 N.ar    1  LIG1       -0.2162
     10 C          -0.1925   -0.2423    0.0000 C.ar    1  LIG1        0.1606
     11 H           1.5966   -1.8603    0.0000 H       1  LIG1        0.0456
     12 H          -0.0365   -1.8745   -0.9121 H       1  LIG1        0.0456
     13 H          -0.0082   -1.8545    0.9370 H       1  LIG1        0.0456
     14 H           2.1904   -0.7931    0.0000 H       1  LIG1        0.0809
     15 H           2.1904    1.1335    0.0000 H       1  LIG1        0.0633
     16 H           0.5220    2.0967    0.0000 H       1  LIG1        0.0640
     17 H          -2.5635    0.1702    0.0000 H       1  LIG1        0.1048
@<TRIPOS>BOND
     1     1     2    1
     2     2     3   ar
     3     3     4   ar
     4     4     5   ar
     5     5     6   ar
     6     6     7   ar
     7     7     8   ar
     8     8     9   ar
     9     9    10   ar
    10     2    10   ar
    11     6    10   ar
    12     1    11    1
    13     1    12    1
    14     1    13    1
    15     3    14    1
    16     4    15    1
    17     5    16    1
    18     8    17    1
