@<TRIPOS>MOLECULE
c1cc2c[nH]nc2o1
 12 13 0 0 0
SMALL
GASTEIGER
Energy = 0

@<TRIPOS>ATOM
      1 N           1.2602    0.0384    0.0000 N.ar    1  LIG1       -0.2806
      2 C           0.7753    0.7058    0.0000 C.ar    1  LIG1        0.0333
      3 C          -0.0093    0.4509    0.0000 C.ar    1  LIG1        0.0586
      4 C          -0.7939    0.7058    0.0000 C.ar    1  LIG1       -0.0130
      5 C          -1.2789    0.0384    0.0000 C.ar    1  LIG1        0.0952
      6 O          -0.7939   -0.6291    0.0000 O.2     1  LIG1       -0.4440
      7 C          -0.0093   -0.3741    0.0000 C.ar    1  LIG1        0.2456
      8 N           0.7753   -0.6291    0.0000 N.ar    1  LIG1       -0.1352
      9 H           2.3427    0.0384    0.0000 H       1  LIG1        0.1883
     10 H           1.1157    1.7534    0.0000 H       1  LIG1        0.0831
     11 H          -1.1342    1.7534    0.0000 H       1  LIG1        0.0656
     12 H          -2.3804    0.0384    0.0000 H       1  LIG1        0.1030
@<TRIPOS>BOND
     1     1     2   ar
     2     2     3   ar
     3     3     4   ar
     4     4     5   ar
     5     5     6   ar
     6     6     7   ar
     7     3     7   ar
     8     7     8   ar
     9     1     8   ar
    10     1     9    1
    11     2    10    1
    12     4    11    1
    13     5    12    1
