@<TRIPOS>MOLECULE
Cn1cnc2nccc(=O)n12
 17 18 0 0 0
SMALL
GASTEIGER
Energy = 0

@<TRIPOS>ATOM
      1 C           1.1411   -1.1535    0.0000 C.3     1  LIG1        0.0306
      2 N           0.8862   -0.3689    0.0000 N.ar    1  LIG1       -0.2665
      3 C           1.3711    0.2985    0.0000 C.ar    1  LIG1        0.1147
      4 N           0.8862    0.9660    0.0000 N.ar    1  LIG1       -0.1996
      5 C           0.1015    0.7110    0.0000 C.ar    1  LIG1        0.2543
      6 N          -0.6129    1.1235    0.0000 N.ar    1  LIG1       -0.2188
      7 C          -1.3274    0.7110    0.0000 C.ar    1  LIG1        0.0366
      8 C          -1.3274   -0.1140    0.0000 C.ar    1  LIG1        0.0229
      9 C          -0.6129   -0.5265    0.0000 C.ar    1  LIG1        0.2743
     10 O          -0.6129   -1.3515    0.0000 O.2     1  LIG1       -0.2658
     11 N           0.1015   -0.1140    0.0000 N.ar    1  LIG1       -0.1808
     12 H           2.2807   -1.1834    0.0000 H       1  LIG1        0.0473
     13 H           0.7319   -1.7014   -0.9121 H       1  LIG1        0.0473
     14 H           0.7526   -1.6737    0.9370 H       1  LIG1        0.0473
     15 H           2.4726    0.2985    0.0000 H       1  LIG1        0.1044
     16 H          -2.2813    1.2618    0.0000 H       1  LIG1        0.0832
     17 H          -2.2813   -0.6648    0.0000 H       1  LIG1        0.0687
@<TRIPOS>BOND
     1     1     2    1
     2     2     3   ar
     3     3     4   ar
     4     4     5   ar
     5     5     6   ar
     6     6     7   ar
     7     7     8   ar
     8     8     9   ar
     9     9    10    2
    10     9    11   ar
    11     2    11   ar
    12     5    11   ar
    13     1    12    1
    14     1    13    1
    15     1    14    1
    16     3    15    1
    17     7    16    1
    18     8    17    1
