REMARK  Name = 
REMARK  8 active torsions:
REMARK  status: ('A' for Active; 'I' for Inactive)
REMARK    1  A    between atoms: C_1  and  O_23
REMARK    2  A    between atoms: C_5  and  C_11
REMARK    3  A    between atoms: C_10  and  O_24
REMARK    4  A    between atoms: C_22  and  O_23
REMARK    5  A    between atoms: O_24  and  C_25
REMARK    6  A    between atoms: C_25  and  C_26
REMARK    7  A    between atoms: C_26  and  C_27
REMARK    8  A    between atoms: C_27  and  N_28
REMARK                            x       y       z     vdW  Elec       q    Type
REMARK                         _______ _______ _______ _____ _____    ______ ____
ROOT
ATOM      1  C   UNL     1      16.134  34.001  92.370  0.00  0.00    +0.164 A 
ATOM      2  C   UNL     1      17.444  34.472  92.534  0.00  0.00    +0.163 A 
ATOM      3  C   UNL     1      18.269  34.629  91.456  0.00  0.00    +0.061 A 
ATOM      4  C   UNL     1      17.799  34.326  90.174  0.00  0.00    +0.030 A 
ATOM      5  C   UNL     1      18.612  34.477  89.022  0.00  0.00    +0.084 A 
ATOM      6  N   UNL     1      18.088  34.167  87.838  0.00  0.00    -0.235 NA
ATOM      7  C   UNL     1      16.844  33.730  87.728  0.00  0.00    +0.222 A 
ATOM      8  N   UNL     1      16.048  33.571  88.759  0.00  0.00    -0.235 NA
ATOM      9  C   UNL     1      16.474  33.854  90.000  0.00  0.00    +0.078 A 
ATOM     10  C   UNL     1      15.647  33.696  91.118  0.00  0.00    +0.077 A 
ENDROOT
BRANCH   5  11
ATOM     11  C   UNL     1      20.000  34.963  89.132  0.00  0.00    +0.026 A 
ATOM     12  C   UNL     1      20.409  36.137  89.685  0.00  0.00    +0.093 A 
ATOM     13  N   UNL     1      21.762  36.237  89.601  0.00  0.00    -0.360 N 
ATOM     14  H   UNL     1      22.291  36.998  89.932  0.00  0.00    +0.165 HD
ATOM     15  C   UNL     1      22.289  35.120  88.986  0.00  0.00    +0.050 A 
ATOM     16  C   UNL     1      23.585  34.734  88.662  0.00  0.00    +0.066 A 
ATOM     17  C   UNL     1      23.807  33.520  88.044  0.00  0.00    +0.144 A 
ATOM     18  F   UNL     1      25.068  33.146  87.737  0.00  0.00    -0.204 F 
ATOM     19  C   UNL     1      22.744  32.682  87.727  0.00  0.00    +0.077 A 
ATOM     20  C   UNL     1      21.452  33.052  88.036  0.00  0.00    +0.033 A 
ATOM     21 CL   UNL     1      23.044  31.165  86.940  0.00  0.00    -0.081 Cl
ATOM     22  C   UNL     1      21.216  34.271  88.669  0.00  0.00    +0.010 A 
ENDBRANCH   5  11
BRANCH   1  23
ATOM     23  O   UNL     1      15.333  33.848  93.458  0.00  0.00    -0.491 OA
ATOM     24  C   UNL     1      15.542  32.684  94.259  0.00  0.00    +0.277 C 
ENDBRANCH   1  23
BRANCH   2  25
ATOM     25  O   UNL     1      17.900  34.773  93.780  0.00  0.00    -0.488 OA
BRANCH  25  26
ATOM     26  C   UNL     1      17.585  36.070  94.290  0.00  0.00    +0.234 C 
BRANCH  26  27
ATOM     27  C   UNL     1      16.805  35.926  95.599  0.00  0.00    +0.092 C 
BRANCH  27  28
ATOM     28  C   UNL     1      17.144  37.095  96.525  0.00  0.00    +0.134 C 
BRANCH  28  29
ATOM     29  N   UNL     1      16.066  38.091  96.472  0.00  0.00    +0.239 N 
ATOM     30  H   UNL     1      16.162  38.649  95.624  0.00  0.00    +0.203 HD
ATOM     31  C   UNL     1      16.150  38.967  97.648  0.00  0.00    +0.160 C 
ATOM     32  C   UNL     1      15.026  40.005  97.590  0.00  0.00    +0.210 C 
ATOM     33  O   UNL     1      13.766  39.332  97.524  0.00  0.00    -0.369 OA
ATOM     34  C   UNL     1      13.645  38.448  96.407  0.00  0.00    +0.210 C 
ATOM     35  C   UNL     1      14.765  37.407  96.464  0.00  0.00    +0.160 C 
ENDBRANCH  28  29
ENDBRANCH  27  28
ENDBRANCH  26  27
ENDBRANCH  25  26
ENDBRANCH   2  25
TORSDOF 7
