REMARK  Name = 
REMARK  5 active torsions:
REMARK  status: ('A' for Active; 'I' for Inactive)
REMARK    1  A    between atoms: C_1  and  C_12
REMARK    2  A    between atoms: C_5  and  N_23
REMARK    3  A    between atoms: C_15  and  C_16
REMARK    4  A    between atoms: C_16  and  N_17
REMARK    5  A    between atoms: N_23  and  C_24
REMARK                            x       y       z     vdW  Elec       q    Type
REMARK                         _______ _______ _______ _____ _____    ______ ____
ROOT
ATOM      1  C   UNL     1      17.809  34.573  91.188  0.00  0.00    +0.022 A 
ATOM      2  C   UNL     1      17.258  33.716  90.291  0.00  0.00    +0.044 A 
ATOM      3  C   UNL     1      17.803  33.606  88.998  0.00  0.00    +0.080 A 
ATOM      4  C   UNL     1      18.920  34.429  88.742  0.00  0.00    +0.059 A 
ATOM      5  C   UNL     1      19.562  34.429  87.515  0.00  0.00    +0.049 A 
ATOM      6  C   UNL     1      19.071  33.581  86.521  0.00  0.00    +0.044 A 
ATOM      7  C   UNL     1      17.974  32.790  86.815  0.00  0.00    +0.113 A 
ATOM      8  N   UNL     1      17.387  32.811  87.985  0.00  0.00    -0.254 NA
ATOM      9  S   UNL     1      19.151  35.304  90.268  0.00  0.00    -0.085 S 
ENDROOT
BRANCH   1  10
ATOM     10  C   UNL     1      17.394  34.840  92.583  0.00  0.00    -0.011 A 
ATOM     11  C   UNL     1      17.908  35.941  93.268  0.00  0.00    +0.009 A 
ATOM     12  C   UNL     1      17.516  36.184  94.569  0.00  0.00    +0.009 A 
ATOM     13  C   UNL     1      16.616  35.340  95.193  0.00  0.00    -0.003 A 
ATOM     14  C   UNL     1      16.102  34.247  94.518  0.00  0.00    +0.009 A 
ATOM     15  C   UNL     1      16.486  33.992  93.218  0.00  0.00    +0.009 A 
BRANCH  13  16
ATOM     16  C   UNL     1      16.192  35.612  96.614  0.00  0.00    +0.168 C 
BRANCH  16  17
ATOM     17  N   UNL     1      15.696  36.991  96.721  0.00  0.00    +0.242 N 
ATOM     18  H   UNL     1      16.230  37.566  96.070  0.00  0.00    +0.204 HD
ATOM     19  C   UNL     1      15.906  37.523  98.075  0.00  0.00    +0.160 C 
ATOM     20  C   UNL     1      15.430  38.977  98.125  0.00  0.00    +0.210 C 
ATOM     21  O   UNL     1      14.059  39.039  97.725  0.00  0.00    -0.369 OA
ATOM     22  C   UNL     1      13.819  38.530  96.411  0.00  0.00    +0.210 C 
ATOM     23  C   UNL     1      14.278  37.071  96.343  0.00  0.00    +0.160 C 
ENDBRANCH  16  17
ENDBRANCH  13  16
ENDBRANCH   1  10
BRANCH   5  24
ATOM     24  N   UNL     1      20.663  35.249  87.279  0.00  0.00    -0.314 N 
ATOM     25  H   UNL     1      20.531  36.173  86.966  0.00  0.00    +0.152 HD
BRANCH  24  26
ATOM     26  C   UNL     1      21.958  34.759  87.487  0.00  0.00    +0.032 A 
ATOM     27  C   UNL     1      22.729  35.266  88.515  0.00  0.00    +0.033 A 
ATOM     28  C   UNL     1      24.018  34.769  88.721  0.00  0.00    +0.001 A 
ATOM     29  C   UNL     1      25.079  35.063  89.687  0.00  0.00    +0.027 A 
ATOM     30  C   UNL     1      26.115  34.265  89.388  0.00  0.00    +0.083 A 
ATOM     31  N   UNL     1      25.806  33.483  88.308  0.00  0.00    -0.361 N 
ATOM     32  H   UNL     1      26.406  32.817  87.901  0.00  0.00    +0.165 HD
ATOM     33  C   UNL     1      24.527  33.768  87.875  0.00  0.00    +0.047 A 
ATOM     34  C   UNL     1      23.738  33.274  86.841  0.00  0.00    +0.028 A 
ATOM     35  C   UNL     1      22.467  33.767  86.651  0.00  0.00    +0.025 A 
ENDBRANCH  24  26
ENDBRANCH   5  24
TORSDOF 5
