REMARK  Name = 
REMARK  9 active torsions:
REMARK  status: ('A' for Active; 'I' for Inactive)
REMARK    1  A    between atoms: C_1  and  C_10
REMARK    2  A    between atoms: C_4  and  S_14
REMARK    3  A    between atoms: N_5  and  N_13
REMARK    4  A    between atoms: C_6  and  C_7
REMARK    5  A    between atoms: S_14  and  C_15
REMARK    6  A    between atoms: C_15  and  C_16
REMARK    7  A    between atoms: N_17  and  C_19
REMARK    8  A    between atoms: C_19  and  C_20
REMARK    9  A    between atoms: C_19  and  C_21
REMARK                            x       y       z     vdW  Elec       q    Type
REMARK                         _______ _______ _______ _____ _____    ______ ____
ROOT
ATOM      1  C   UNL     1      17.152  33.047  88.457  0.00  0.00    +0.179 A 
ATOM      2  N   UNL     1      18.079  33.698  89.238  0.00  0.00    -0.235 N 
ATOM      3  C   UNL     1      17.376  34.231  90.279  0.00  0.00    +0.207 A 
ATOM      4  N   UNL     1      16.115  33.901  90.107  0.00  0.00    -0.121 NA
ATOM      5  N   UNL     1      15.983  33.209  89.033  0.00  0.00    -0.127 NA
ENDROOT
BRANCH   1   6
ATOM      6  C   UNL     1      17.419  32.307  87.206  0.00  0.00    +0.021 A 
ATOM      7  C   UNL     1      16.460  32.273  86.193  0.00  0.00    +0.012 A 
ATOM      8  C   UNL     1      16.719  31.584  85.026  0.00  0.00    +0.004 A 
ATOM      9  C   UNL     1      17.922  30.920  84.862  0.00  0.00    -0.050 A 
ATOM     10  C   UNL     1      18.875  30.946  85.866  0.00  0.00    +0.004 A 
ATOM     11  C   UNL     1      18.194  30.165  83.587  0.00  0.00    +0.044 C 
ATOM     12  C   UNL     1      18.630  31.636  87.035  0.00  0.00    +0.012 A 
ENDBRANCH   1   6
BRANCH   2  13
ATOM     13  N   UNL     1      19.424  33.789  89.017  0.00  0.00    -0.239 N 
ATOM     14  H   UNL     1      19.926  33.373  89.802  0.00  0.00    +0.143 HD
ATOM     15  H   UNL     1      19.662  33.291  88.159  0.00  0.00    +0.143 HD
ENDBRANCH   2  13
BRANCH   3  16
ATOM     16  S   UNL     1      18.035  35.179  91.610  0.00  0.00    -0.075 S 
BRANCH  16  17
ATOM     17  C   UNL     1      16.505  35.633  92.463  0.00  0.00    +0.173 C 
BRANCH  17  18
ATOM     18  C   UNL     1      16.773  35.769  93.939  0.00  0.00    +0.224 C 
ATOM     19  N   UNL     1      15.760  36.033  94.787  0.00  0.00    -0.308 N 
ATOM     20  H   UNL     1      14.844  36.137  94.442  0.00  0.00    +0.149 HD
ATOM     21  O   UNL     1      17.902  35.642  94.364  0.00  0.00    -0.275 OA
BRANCH  19  22
ATOM     22  C   UNL     1      16.020  36.166  96.222  0.00  0.00    +0.102 C 
ATOM     23  C   UNL     1      15.304  35.044  96.976  0.00  0.00    +0.033 C 
BRANCH  22  24
ATOM     24  C   UNL     1      15.512  37.500  96.704  0.00  0.00    -0.009 A 
ATOM     25  C   UNL     1      16.329  38.318  97.463  0.00  0.00    +0.046 A 
ATOM     26 CL   UNL     1      17.941  37.808  97.861  0.00  0.00    -0.083 Cl
ATOM     27  C   UNL     1      15.863  39.543  97.906  0.00  0.00    +0.020 A 
ATOM     28  C   UNL     1      14.581  39.951  97.585  0.00  0.00    +0.001 A 
ATOM     29  C   UNL     1      13.763  39.130  96.831  0.00  0.00    +0.000 A 
ATOM     30  C   UNL     1      14.229  37.907  96.388  0.00  0.00    +0.007 A 
ENDBRANCH  22  24
ENDBRANCH  19  22
ENDBRANCH  17  18
ENDBRANCH  16  17
ENDBRANCH   3  16
TORSDOF 7
