REMARK  Name = 
REMARK  8 active torsions:
REMARK  status: ('A' for Active; 'I' for Inactive)
REMARK    1  A    between atoms: C_1  and  C_8
REMARK    2  A    between atoms: C_2  and  C_11
REMARK    3  A    between atoms: C_2  and  C_21
REMARK    4  A    between atoms: C_5  and  O_9
REMARK    5  A    between atoms: C_6  and  O_10
REMARK    6  A    between atoms: C_11  and  C_13
REMARK    7  A    between atoms: C_16  and  O_19
REMARK    8  A    between atoms: C_17  and  O_20
REMARK                            x       y       z     vdW  Elec       q    Type
REMARK                         _______ _______ _______ _____ _____    ______ ____
ROOT
ATOM      1  C   UNL     1      16.704  35.826  93.768  0.00  0.00    +0.030 C 
ATOM      2  C   UNL     1      16.462  35.162  94.953  0.00  0.00    +0.099 C 
ENDROOT
BRANCH   1   3
ATOM      3  C   UNL     1      16.593  35.115  92.494  0.00  0.00    -0.020 A 
ATOM      4  C   UNL     1      17.749  34.701  91.816  0.00  0.00    +0.057 A 
ATOM      5  C   UNL     1      17.638  34.032  90.615  0.00  0.00    +0.159 A 
ATOM      6  C   UNL     1      16.376  33.767  90.077  0.00  0.00    +0.158 A 
ATOM      7  C   UNL     1      15.231  34.177  90.747  0.00  0.00    +0.050 A 
ATOM      8  C   UNL     1      15.330  34.845  91.946  0.00  0.00    +0.012 A 
BRANCH   5   9
ATOM      9  O   UNL     1      18.756  33.627  89.956  0.00  0.00    -0.503 OA
ATOM     10  H   UNL     1      18.680  33.172  89.140  0.00  0.00    +0.292 HD
ENDBRANCH   5   9
BRANCH   6  11
ATOM     11  O   UNL     1      16.271  33.108  88.895  0.00  0.00    -0.503 OA
ATOM     12  H   UNL     1      15.426  32.929  88.532  0.00  0.00    +0.292 HD
ENDBRANCH   6  11
ENDBRANCH   1   3
BRANCH   2  13
ATOM     13  C   UNL     1      16.763  35.814  96.236  0.00  0.00    +0.203 C 
ATOM     14  O   UNL     1      17.650  35.380  96.947  0.00  0.00    -0.286 OA
BRANCH  13  15
ATOM     15  C   UNL     1      15.988  36.996  96.661  0.00  0.00    +0.027 A 
ATOM     16  C   UNL     1      16.649  38.157  97.074  0.00  0.00    +0.061 A 
ATOM     17  C   UNL     1      15.919  39.262  97.465  0.00  0.00    +0.159 A 
ATOM     18  C   UNL     1      14.525  39.214  97.457  0.00  0.00    +0.158 A 
ATOM     19  C   UNL     1      13.869  38.060  97.053  0.00  0.00    +0.050 A 
ATOM     20  C   UNL     1      14.591  36.956  96.656  0.00  0.00    +0.015 A 
BRANCH  17  21
ATOM     21  O   UNL     1      16.558  40.395  97.860  0.00  0.00    -0.503 OA
ATOM     22  H   UNL     1      16.062  41.144  98.125  0.00  0.00    +0.292 HD
ENDBRANCH  17  21
BRANCH  18  23
ATOM     23  O   UNL     1      13.809  40.301  97.846  0.00  0.00    -0.503 OA
ATOM     24  H   UNL     1      12.873  40.271  97.841  0.00  0.00    +0.292 HD
ENDBRANCH  18  23
ENDBRANCH  13  15
ENDBRANCH   2  13
BRANCH   2  25
ATOM     25  C   UNL     1      15.921  33.836  94.932  0.00  0.00    +0.103 C 
ATOM     26  N   UNL     1      15.492  32.784  94.914  0.00  0.00    -0.191 NA
ENDBRANCH   2  25
TORSDOF 8
