REMARK  Name = 
REMARK  6 active torsions:
REMARK  status: ('A' for Active; 'I' for Inactive)
REMARK    1  A    between atoms: C_1  and  C_8
REMARK    2  A    between atoms: N_2  and  C_18
REMARK    3  A    between atoms: C_7  and  N_10
REMARK    4  A    between atoms: C_11  and  C_13
REMARK    5  A    between atoms: C_18  and  C_19
REMARK    6  A    between atoms: C_19  and  C_20
REMARK                            x       y       z     vdW  Elec       q    Type
REMARK                         _______ _______ _______ _____ _____    ______ ____
ROOT
ATOM      1  C   UNL     1      17.858  34.960  89.661  0.00  0.00    +0.246 C 
ATOM      2  N   UNL     1      17.047  34.248  90.469  0.00  0.00    -0.311 N 
ATOM      3  H   UNL     1      16.698  33.377  90.172  0.00  0.00    +0.149 HD
ATOM      4  O   UNL     1      18.289  36.037  90.027  0.00  0.00    -0.270 OA
ENDROOT
BRANCH   1   5
ATOM      5  C   UNL     1      18.222  34.434  88.333  0.00  0.00    +0.058 A 
ATOM      6  C   UNL     1      17.249  33.848  87.519  0.00  0.00    +0.015 A 
ATOM      7  C   UNL     1      17.594  33.361  86.276  0.00  0.00    +0.001 A 
ATOM      8  C   UNL     1      18.905  33.440  85.833  0.00  0.00    +0.002 A 
ATOM      9  C   UNL     1      19.878  34.011  86.629  0.00  0.00    +0.024 A 
ATOM     10  C   UNL     1      19.548  34.512  87.881  0.00  0.00    +0.046 A 
BRANCH  10  11
ATOM     11  N   UNL     1      20.527  35.088  88.685  0.00  0.00    -0.278 N 
ATOM     12  H   UNL     1      20.612  36.068  88.732  0.00  0.00    +0.155 HD
ATOM     13  C   UNL     1      21.359  34.304  89.399  0.00  0.00    +0.284 C 
ATOM     14  O   UNL     1      21.319  33.094  89.267  0.00  0.00    -0.266 OA
BRANCH  13  15
ATOM     15  C   UNL     1      22.314  34.908  90.334  0.00  0.00    +0.189 A 
ATOM     16  O   UNL     1      22.205  34.922  91.678  0.00  0.00    -0.458 OA
ATOM     17  C   UNL     1      23.262  35.557  92.202  0.00  0.00    +0.196 A 
ATOM     18  C   UNL     1      24.065  35.970  91.196  0.00  0.00    +0.042 A 
ATOM     19  C   UNL     1      23.466  35.558  89.995  0.00  0.00    +0.054 A 
ENDBRANCH  13  15
ENDBRANCH  10  11
ENDBRANCH   1   5
BRANCH   2  20
ATOM     20  C   UNL     1      16.685  34.772  91.789  0.00  0.00    +0.109 C 
BRANCH  20  21
ATOM     21  C   UNL     1      17.435  33.992  92.870  0.00  0.00    +0.056 C 
BRANCH  21  22
ATOM     22  C   UNL     1      16.534  33.791  94.061  0.00  0.00    -0.021 A 
ATOM     23  C   UNL     1      16.476  34.630  95.262  0.00  0.00    +0.004 A 
ATOM     24  C   UNL     1      17.156  35.777  95.677  0.00  0.00    +0.030 A 
ATOM     25  C   UNL     1      16.859  36.340  96.898  0.00  0.00    +0.042 A 
ATOM     26 CL   UNL     1      17.700  37.766  97.418  0.00  0.00    -0.084 Cl
ATOM     27  C   UNL     1      15.890  35.772  97.716  0.00  0.00    +0.022 A 
ATOM     28  C   UNL     1      15.212  34.640  97.320  0.00  0.00    +0.027 A 
ATOM     29  C   UNL     1      15.495  34.056  96.091  0.00  0.00    +0.047 A 
ATOM     30  N   UNL     1      15.003  32.951  95.431  0.00  0.00    -0.360 N 
ATOM     31  H   UNL     1      14.302  32.352  95.776  0.00  0.00    +0.165 HD
ATOM     32  C   UNL     1      15.633  32.810  94.225  0.00  0.00    +0.087 A 
ENDBRANCH  21  22
ENDBRANCH  20  21
ENDBRANCH   2  20
TORSDOF 6
