REMARK  Name = 
REMARK  16 active torsions:
REMARK  status: ('A' for Active; 'I' for Inactive)
REMARK    1  A    between atoms: C_1  and  C_2
REMARK    2  A    between atoms: C_1  and  C_19
REMARK    3  A    between atoms: C_2  and  C_3
REMARK    4  A    between atoms: C_3  and  N_4
REMARK    5  A    between atoms: C_5  and  C_7
REMARK    6  A    between atoms: C_7  and  C_17
REMARK    7  A    between atoms: C_8  and  C_9
REMARK    8  A    between atoms: C_11  and  O_16
REMARK    9  A    between atoms: C_12  and  O_15
REMARK   10  A    between atoms: C_19  and  C_20
REMARK   11  A    between atoms: C_20  and  N_22
REMARK   12  A    between atoms: C_21  and  C_25
REMARK   13  A    between atoms: C_24  and  C_27
REMARK   14  A    between atoms: C_25  and  C_34
REMARK   15  A    between atoms: C_29  and  O_33
REMARK   16  A    between atoms: C_30  and  O_32
REMARK                            x       y       z     vdW  Elec       q    Type
REMARK                         _______ _______ _______ _____ _____    ______ ____
ROOT
ATOM      1  C   UNL     1      14.713  33.906  87.173  0.00  0.00    +0.003 C 
ENDROOT
BRANCH   1   2
ATOM      2  C   UNL     1      14.614  32.569  86.434  0.00  0.00    +0.019 C 
BRANCH   2   3
ATOM      3  C   UNL     1      15.963  32.241  85.790  0.00  0.00    +0.104 C 
BRANCH   3   4
ATOM      4  N   UNL     1      17.031  32.428  86.774  0.00  0.00    -0.311 N 
ATOM      5  H   UNL     1      16.964  32.003  87.659  0.00  0.00    +0.149 HD
ATOM      6  C   UNL     1      18.105  33.182  86.468  0.00  0.00    +0.254 C 
ATOM      7  O   UNL     1      18.187  33.708  85.373  0.00  0.00    -0.269 OA
BRANCH   6   8
ATOM      8  C   UNL     1      19.180  33.368  87.455  0.00  0.00    +0.114 C 
ATOM      9  C   UNL     1      19.664  34.632  87.716  0.00  0.00    +0.032 C 
BRANCH   9  10
ATOM     10  C   UNL     1      20.832  34.803  88.582  0.00  0.00    -0.020 A 
ATOM     11  C   UNL     1      20.672  35.258  89.899  0.00  0.00    +0.057 A 
ATOM     12  C   UNL     1      21.777  35.417  90.709  0.00  0.00    +0.159 A 
ATOM     13  C   UNL     1      23.051  35.127  90.218  0.00  0.00    +0.158 A 
ATOM     14  C   UNL     1      23.212  34.677  88.913  0.00  0.00    +0.050 A 
ATOM     15  C   UNL     1      22.115  34.508  88.099  0.00  0.00    +0.012 A 
BRANCH  13  16
ATOM     16  O   UNL     1      24.136  35.285  91.018  0.00  0.00    -0.503 OA
ATOM     17  H   UNL     1      24.029  35.588  91.898  0.00  0.00    +0.292 HD
ENDBRANCH  13  16
BRANCH  12  18
ATOM     18  O   UNL     1      21.626  35.858  91.987  0.00  0.00    -0.503 OA
ATOM     19  H   UNL     1      20.771  36.053  92.317  0.00  0.00    +0.292 HD
ENDBRANCH  12  18
ENDBRANCH   9  10
BRANCH   8  20
ATOM     20  C   UNL     1      19.722  32.237  88.145  0.00  0.00    +0.104 C 
ATOM     21  N   UNL     1      20.152  31.339  88.693  0.00  0.00    -0.191 NA
ENDBRANCH   8  20
ENDBRANCH   6   8
ENDBRANCH   3   4
ENDBRANCH   2   3
ENDBRANCH   1   2
BRANCH   1  22
ATOM     22  C   UNL     1      14.437  33.688  88.662  0.00  0.00    +0.019 C 
BRANCH  22  23
ATOM     23  C   UNL     1      15.761  33.655  89.428  0.00  0.00    +0.104 C 
BRANCH  23  24
ATOM     24  N   UNL     1      15.517  33.958  90.840  0.00  0.00    -0.311 N 
ATOM     25  H   UNL     1      14.595  34.045  91.173  0.00  0.00    +0.149 HD
ATOM     26  C   UNL     1      16.556  34.118  91.683  0.00  0.00    +0.254 C 
ATOM     27  O   UNL     1      17.695  34.013  91.272  0.00  0.00    -0.269 OA
BRANCH  26  28
ATOM     28  C   UNL     1      16.310  34.421  93.102  0.00  0.00    +0.114 C 
ATOM     29  C   UNL     1      16.537  35.692  93.584  0.00  0.00    +0.032 C 
BRANCH  29  30
ATOM     30  C   UNL     1      16.434  35.960  95.021  0.00  0.00    -0.020 A 
ATOM     31  C   UNL     1      15.286  36.575  95.541  0.00  0.00    +0.057 A 
ATOM     32  C   UNL     1      15.195  36.824  96.895  0.00  0.00    +0.159 A 
ATOM     33  C   UNL     1      16.244  36.466  97.743  0.00  0.00    +0.158 A 
ATOM     34  C   UNL     1      17.383  35.856  97.229  0.00  0.00    +0.050 A 
ATOM     35  C   UNL     1      17.483  35.603  95.880  0.00  0.00    +0.012 A 
BRANCH  32  36
ATOM     36  O   UNL     1      14.084  37.421  97.403  0.00  0.00    -0.503 OA
ATOM     37  H   UNL     1      13.380  37.661  96.834  0.00  0.00    +0.292 HD
ENDBRANCH  32  36
BRANCH  33  38
ATOM     38  O   UNL     1      16.153  36.712  99.074  0.00  0.00    -0.503 OA
ATOM     39  H   UNL     1      15.387  37.123  99.423  0.00  0.00    +0.292 HD
ENDBRANCH  33  38
ENDBRANCH  29  30
BRANCH  28  40
ATOM     40  C   UNL     1      15.835  33.396  93.982  0.00  0.00    +0.104 C 
ATOM     41  N   UNL     1      15.458  32.583  94.680  0.00  0.00    -0.191 NA
ENDBRANCH  28  40
ENDBRANCH  26  28
ENDBRANCH  23  24
ENDBRANCH  22  23
ENDBRANCH   1  22
TORSDOF 16
