REMARK  Name = 
REMARK  7 active torsions:
REMARK  status: ('A' for Active; 'I' for Inactive)
REMARK    1  A    between atoms: N_1  and  C_4
REMARK    2  A    between atoms: C_2  and  C_15
REMARK    3  A    between atoms: C_4  and  C_6
REMARK    4  A    between atoms: N_5  and  C_14
REMARK    5  A    between atoms: C_8  and  C_9
REMARK    6  A    between atoms: C_15  and  N_16
REMARK    7  A    between atoms: C_17  and  C_19
REMARK                            x       y       z     vdW  Elec       q    Type
REMARK                         _______ _______ _______ _____ _____    ______ ____
ROOT
ATOM      1  N   UNL     1      16.528  35.911  93.082  0.00  0.00    -0.305 N 
ATOM      2  H   UNL     1      16.138  36.719  92.676  0.00  0.00    +0.149 HD
ATOM      3  C   UNL     1      16.097  34.691  92.702  0.00  0.00    +0.231 C 
ATOM      4  O   UNL     1      16.575  33.697  93.206  0.00  0.00    -0.274 OA
ENDROOT
BRANCH   1   5
ATOM      5  C   UNL     1      17.576  36.035  94.099  0.00  0.00    +0.200 C 
BRANCH   5   6
ATOM      6  C   UNL     1      16.946  36.071  95.468  0.00  0.00    +0.230 C 
ATOM      7  O   UNL     1      17.034  35.109  96.201  0.00  0.00    -0.274 OA
ATOM      8  N   UNL     1      16.286  37.172  95.877  0.00  0.00    -0.311 N 
ATOM      9  H   UNL     1      16.215  37.953  95.282  0.00  0.00    +0.149 HD
BRANCH   8  10
ATOM     10  C   UNL     1      15.674  37.207  97.207  0.00  0.00    +0.076 C 
ATOM     11  C   UNL     1      14.162  37.397  97.068  0.00  0.00    +0.022 C 
ATOM     12  C   UNL     1      13.878  38.712  96.340  0.00  0.00    +0.002 C 
ATOM     13  C   UNL     1      14.465  39.876  97.142  0.00  0.00    +0.000 C 
ATOM     14  C   UNL     1      15.977  39.687  97.281  0.00  0.00    +0.005 C 
ATOM     15  C   UNL     1      16.262  38.371  98.009  0.00  0.00    +0.006 C 
ATOM     16  C   UNL     1      17.773  38.181  98.148  0.00  0.00    +0.009 C 
ENDBRANCH   8  10
ENDBRANCH   5   6
ENDBRANCH   1   5
BRANCH   3  17
ATOM     17  C   UNL     1      15.025  34.564  91.652  0.00  0.00    +0.200 C 
BRANCH  17  18
ATOM     18  N   UNL     1      15.513  33.725  90.555  0.00  0.00    -0.303 N 
ATOM     19  H   UNL     1      15.081  32.861  90.367  0.00  0.00    +0.150 HD
ATOM     20  C   UNL     1      16.553  34.136  89.803  0.00  0.00    +0.246 C 
ATOM     21  O   UNL     1      17.087  35.203  90.036  0.00  0.00    -0.270 OA
BRANCH  20  22
ATOM     22  C   UNL     1      17.047  33.290  88.697  0.00  0.00    +0.055 A 
ATOM     23  C   UNL     1      18.190  32.506  88.871  0.00  0.00    +0.016 A 
ATOM     24  C   UNL     1      18.642  31.715  87.837  0.00  0.00    +0.021 A 
ATOM     25  C   UNL     1      17.971  31.701  86.625  0.00  0.00    +0.042 A 
ATOM     26  C   UNL     1      16.841  32.478  86.444  0.00  0.00    +0.040 A 
ATOM     27 CL   UNL     1      18.552  30.706  85.327  0.00  0.00    -0.083 Cl
ATOM     28  C   UNL     1      16.375  33.273  87.473  0.00  0.00    +0.054 A 
ATOM     29 CL   UNL     1      14.956  34.247  87.246  0.00  0.00    -0.083 Cl
ENDBRANCH  20  22
ENDBRANCH  17  18
ENDBRANCH   3  17
TORSDOF 6
