REMARK  Name = 
REMARK  11 active torsions:
REMARK  status: ('A' for Active; 'I' for Inactive)
REMARK    1  A    between atoms: C_1  and  C_7
REMARK    2  A    between atoms: C_1  and  C_11
REMARK    3  A    between atoms: C_1  and  C_16
REMARK    4  A    between atoms: C_2  and  C_3
REMARK    5  A    between atoms: C_5  and  C_6
REMARK    6  A    between atoms: C_8  and  C_9
REMARK    7  A    between atoms: C_11  and  C_12
REMARK    8  A    between atoms: C_11  and  C_14
REMARK    9  A    between atoms: C_16  and  C_17
REMARK   10  A    between atoms: C_17  and  C_23
REMARK   11  A    between atoms: N_18  and  N_19
REMARK                            x       y       z     vdW  Elec       q    Type
REMARK                         _______ _______ _______ _____ _____    ______ ____
ROOT
ATOM      1  C   UNL     1      20.732  34.074  88.449  0.00  0.00    +0.056 C 
ENDROOT
BRANCH   1   2
ATOM      2  C   UNL     1      19.336  34.019  89.013  0.00  0.00    -0.036 A 
ATOM      3  C   UNL     1      18.686  32.805  89.134  0.00  0.00    -0.046 A 
ATOM      4  C   UNL     1      17.402  32.756  89.646  0.00  0.00    +0.007 A 
ATOM      5  C   UNL     1      16.772  33.921  90.042  0.00  0.00    -0.050 A 
ATOM      6  C   UNL     1      17.424  35.134  89.926  0.00  0.00    +0.007 A 
ATOM      7  C   UNL     1      15.373  33.868  90.601  0.00  0.00    +0.044 C 
ATOM      8  C   UNL     1      19.373  31.536  88.702  0.00  0.00    +0.044 C 
ATOM      9  C   UNL     1      18.707  35.183  89.414  0.00  0.00    -0.046 A 
ATOM     10  C   UNL     1      19.417  36.507  89.288  0.00  0.00    +0.044 C 
ENDBRANCH   1   2
BRANCH   1  11
ATOM     11  C   UNL     1      21.639  34.851  89.406  0.00  0.00    +0.201 C 
BRANCH  11  12
ATOM     12  C   UNL     1      21.629  34.202  90.727  0.00  0.00    +0.081 C 
ATOM     13  N   UNL     1      21.621  33.701  91.747  0.00  0.00    -0.195 NA
ENDBRANCH  11  12
BRANCH  11  14
ATOM     14  C   UNL     1      23.013  34.866  88.877  0.00  0.00    +0.081 C 
ATOM     15  N   UNL     1      24.072  34.877  88.469  0.00  0.00    -0.195 NA
ENDBRANCH  11  14
ENDBRANCH   1  11
BRANCH   1  16
ATOM     16  C   UNL     1      20.706  34.775  87.089  0.00  0.00    +0.068 C 
BRANCH  16  17
ATOM     17  C   UNL     1      20.721  33.741  85.992  0.00  0.00    +0.074 C 
ATOM     18  N   UNL     1      21.815  33.513  85.327  0.00  0.00    -0.183 NA
BRANCH  18  19
ATOM     19  N   UNL     1      23.006  34.151  85.700  0.00  0.00    -0.191 N 
ATOM     20  H   UNL     1      23.274  34.179  86.647  0.00  0.00    +0.179 HD
ATOM     21  C   UNL     1      23.784  34.726  84.761  0.00  0.00    +0.317 C 
ATOM     22  O   UNL     1      24.818  35.279  85.083  0.00  0.00    -0.251 OA
ATOM     23  N   UNL     1      23.417  34.685  83.465  0.00  0.00    -0.312 N 
ATOM     24  H   UNL     1      23.986  35.103  82.779  0.00  0.00    +0.147 HD
ATOM     25  H   UNL     1      22.580  34.237  83.204  0.00  0.00    +0.147 HD
ENDBRANCH  18  19
BRANCH  17  26
ATOM     26  C   UNL     1      19.501  32.992  85.674  0.00  0.00    +0.035 A 
ATOM     27  C   UNL     1      18.183  33.413  85.711  0.00  0.00    +0.017 A 
ATOM     28  C   UNL     1      17.200  32.516  85.363  0.00  0.00    +0.008 A 
ATOM     29  C   UNL     1      17.549  31.255  84.996  0.00  0.00    +0.046 A 
ATOM     30  S   UNL     1      19.328  31.300  85.128  0.00  0.00    -0.095 S 
ENDBRANCH  17  26
ENDBRANCH  16  17
ENDBRANCH   1  16
TORSDOF 8
