REMARK  Name = 
REMARK  11 active torsions:
REMARK  status: ('A' for Active; 'I' for Inactive)
REMARK    1  A    between atoms: N_1  and  C_22
REMARK    2  A    between atoms: C_2  and  C_4
REMARK    3  A    between atoms: C_5  and  N_15
REMARK    4  A    between atoms: C_7  and  C_8
REMARK    5  A    between atoms: C_10  and  C_11
REMARK    6  A    between atoms: C_16  and  C_23
REMARK    7  A    between atoms: C_17  and  C_18
REMARK    8  A    between atoms: C_19  and  C_20
REMARK    9  A    between atoms: C_23  and  O_25
REMARK   10  A    between atoms: O_25  and  C_27
REMARK   11  A    between atoms: C_26  and  C_27
REMARK                            x       y       z     vdW  Elec       q    Type
REMARK                         _______ _______ _______ _____ _____    ______ ____
ROOT
ATOM      1  N   UNL     1      19.140  33.637  89.579  0.00  0.00    -0.275 N 
ATOM      2  H   UNL     1      19.609  32.839  89.915  0.00  0.00    +0.156 HD
ATOM      3  C   UNL     1      19.845  34.687  89.115  0.00  0.00    +0.257 C 
ATOM      4  O   UNL     1      19.266  35.675  88.701  0.00  0.00    -0.269 OA
ENDROOT
BRANCH   3   5
ATOM      5  C   UNL     1      21.261  34.643  89.110  0.00  0.00    +0.097 A 
ATOM      6  C   UNL     1      22.138  35.234  89.993  0.00  0.00    +0.054 A 
ATOM      7  C   UNL     1      23.564  35.042  89.782  0.00  0.00    +0.032 A 
ATOM      8  C   UNL     1      24.647  35.540  90.549  0.00  0.00    -0.037 A 
ATOM      9  C   UNL     1      24.393  36.389  91.769  0.00  0.00    +0.044 C 
ATOM     10  C   UNL     1      25.931  35.239  90.163  0.00  0.00    +0.027 A 
ATOM     11  C   UNL     1      26.162  34.459  89.040  0.00  0.00    +0.040 A 
ATOM     12  C   UNL     1      27.576  34.136  88.629  0.00  0.00    +0.065 C 
ATOM     13  N   UNL     1      25.152  33.996  88.329  0.00  0.00    -0.245 NA
ATOM     14  C   UNL     1      23.905  34.257  88.657  0.00  0.00    +0.111 A 
ATOM     15  S   UNL     1      22.336  33.816  87.953  0.00  0.00    -0.062 S 
BRANCH   6  16
ATOM     16  N   UNL     1      21.672  35.991  91.059  0.00  0.00    -0.356 N 
ATOM     17  H   UNL     1      22.309  36.406  91.684  0.00  0.00    +0.142 HD
ATOM     18  H   UNL     1      20.704  36.113  91.190  0.00  0.00    +0.142 HD
ENDBRANCH   6  16
ENDBRANCH   3   5
BRANCH   1  19
ATOM     19  C   UNL     1      17.756  33.680  89.584  0.00  0.00    +0.087 A 
ATOM     20  S   UNL     1      16.661  33.227  88.321  0.00  0.00    -0.078 S 
ATOM     21  C   UNL     1      15.114  33.590  89.124  0.00  0.00    -0.008 A 
ATOM     22  C   UNL     1      13.718  33.429  88.579  0.00  0.00    +0.052 C 
ATOM     23  C   UNL     1      15.490  34.041  90.334  0.00  0.00    -0.025 A 
ATOM     24  C   UNL     1      14.475  34.472  91.361  0.00  0.00    +0.045 C 
ATOM     25  C   UNL     1      16.907  34.097  90.605  0.00  0.00    +0.091 A 
BRANCH  25  26
ATOM     26  C   UNL     1      17.425  34.572  91.889  0.00  0.00    +0.342 C 
ATOM     27  O   UNL     1      17.866  35.702  91.987  0.00  0.00    -0.245 OA
BRANCH  26  28
ATOM     28  O   UNL     1      17.414  33.757  92.964  0.00  0.00    -0.461 OA
BRANCH  28  29
ATOM     29  C   UNL     1      16.626  34.184  94.106  0.00  0.00    +0.229 C 
ATOM     30  C   UNL     1      15.661  33.065  94.506  0.00  0.00    +0.048 C 
ENDBRANCH  28  29
ENDBRANCH  26  28
ENDBRANCH  25  26
ENDBRANCH   1  19
TORSDOF 6
