REMARK  Name = 
REMARK  8 active torsions:
REMARK  status: ('A' for Active; 'I' for Inactive)
REMARK    1  A    between atoms: C_1  and  O_23
REMARK    2  A    between atoms: C_5  and  C_11
REMARK    3  A    between atoms: C_10  and  O_24
REMARK    4  A    between atoms: C_22  and  O_23
REMARK    5  A    between atoms: O_24  and  C_25
REMARK    6  A    between atoms: C_25  and  C_26
REMARK    7  A    between atoms: C_26  and  C_27
REMARK    8  A    between atoms: C_27  and  N_28
REMARK                            x       y       z     vdW  Elec       q    Type
REMARK                         _______ _______ _______ _____ _____    ______ ____
ROOT
ATOM      1  C   UNL     1      16.143  34.112  92.185  0.00  0.00    +0.164 A 
ATOM      2  C   UNL     1      17.463  34.566  92.323  0.00  0.00    +0.163 A 
ATOM      3  C   UNL     1      18.273  34.696  91.231  0.00  0.00    +0.061 A 
ATOM      4  C   UNL     1      17.780  34.383  89.960  0.00  0.00    +0.030 A 
ATOM      5  C   UNL     1      18.577  34.507  88.794  0.00  0.00    +0.084 A 
ATOM      6  N   UNL     1      18.031  34.189  87.623  0.00  0.00    -0.235 NA
ATOM      7  C   UNL     1      16.779  33.769  87.537  0.00  0.00    +0.222 A 
ATOM      8  N   UNL     1      15.997  33.636  88.582  0.00  0.00    -0.235 NA
ATOM      9  C   UNL     1      16.446  33.929  89.812  0.00  0.00    +0.078 A 
ATOM     10  C   UNL     1      15.633  33.797  90.945  0.00  0.00    +0.077 A 
ENDROOT
BRANCH   5  11
ATOM     11  C   UNL     1      19.973  34.974  88.876  0.00  0.00    +0.026 A 
ATOM     12  C   UNL     1      20.455  35.961  89.679  0.00  0.00    +0.093 A 
ATOM     13  N   UNL     1      21.791  36.108  89.475  0.00  0.00    -0.360 N 
ATOM     14  H   UNL     1      22.362  36.761  89.940  0.00  0.00    +0.165 HD
ATOM     15  C   UNL     1      22.233  35.212  88.524  0.00  0.00    +0.050 A 
ATOM     16  C   UNL     1      23.480  34.955  87.965  0.00  0.00    +0.066 A 
ATOM     17  C   UNL     1      23.618  33.960  87.019  0.00  0.00    +0.144 A 
ATOM     18  C   UNL     1      22.517  33.218  86.607  0.00  0.00    +0.077 A 
ATOM     19  C   UNL     1      21.272  33.463  87.147  0.00  0.00    +0.033 A 
ATOM     20 CL   UNL     1      22.710  31.978  85.408  0.00  0.00    -0.081 Cl
ATOM     21  F   UNL     1      24.832  33.711  86.482  0.00  0.00    -0.204 F 
ATOM     22  C   UNL     1      21.122  34.459  88.110  0.00  0.00    +0.010 A 
ENDBRANCH   5  11
BRANCH   1  23
ATOM     23  O   UNL     1      15.357  33.986  93.286  0.00  0.00    -0.491 OA
ATOM     24  C   UNL     1      15.592  32.854  94.125  0.00  0.00    +0.277 C 
ENDBRANCH   1  23
BRANCH   2  25
ATOM     25  O   UNL     1      17.942  34.876  93.557  0.00  0.00    -0.488 OA
BRANCH  25  26
ATOM     26  C   UNL     1      17.586  36.154  94.088  0.00  0.00    +0.234 C 
BRANCH  26  27
ATOM     27  C   UNL     1      17.276  36.017  95.581  0.00  0.00    +0.092 C 
BRANCH  27  28
ATOM     28  C   UNL     1      15.790  36.289  95.820  0.00  0.00    +0.134 C 
BRANCH  28  29
ATOM     29  N   UNL     1      15.608  37.685  96.236  0.00  0.00    +0.239 N 
ATOM     30  H   UNL     1      15.841  38.280  95.441  0.00  0.00    +0.203 HD
ATOM     31  C   UNL     1      16.513  38.027  97.343  0.00  0.00    +0.160 C 
ATOM     32  C   UNL     1      16.333  39.504  97.704  0.00  0.00    +0.210 C 
ATOM     33  O   UNL     1      14.962  39.747  98.032  0.00  0.00    -0.369 OA
ATOM     34  C   UNL     1      14.053  39.425  96.975  0.00  0.00    +0.210 C 
ATOM     35  C   UNL     1      14.209  37.948  96.607  0.00  0.00    +0.160 C 
ENDBRANCH  28  29
ENDBRANCH  27  28
ENDBRANCH  26  27
ENDBRANCH  25  26
ENDBRANCH   2  25
TORSDOF 7
