REMARK  Name = 
REMARK  10 active torsions:
REMARK  status: ('A' for Active; 'I' for Inactive)
REMARK    1  A    between atoms: N_1  and  C_14
REMARK    2  A    between atoms: C_2  and  C_6
REMARK    3  A    between atoms: C_5  and  S_15
REMARK    4  A    between atoms: C_11  and  N_12
REMARK    5  A    between atoms: C_13  and  C_14
REMARK    6  A    between atoms: S_15  and  C_16
REMARK    7  A    between atoms: C_16  and  C_17
REMARK    8  A    between atoms: N_18  and  C_20
REMARK    9  A    between atoms: C_24  and  C_25
REMARK   10  A    between atoms: C_26  and  C_27
REMARK                            x       y       z     vdW  Elec       q    Type
REMARK                         _______ _______ _______ _____ _____    ______ ____
ROOT
ATOM      1  N   UNL     1      19.064  34.536  90.344  0.00  0.00    -0.302 N 
ATOM      2  C   UNL     1      18.559  34.999  91.526  0.00  0.00    +0.192 A 
ATOM      3  N   UNL     1      19.568  35.125  92.358  0.00  0.00    -0.122 NA
ATOM      4  N   UNL     1      20.662  34.770  91.782  0.00  0.00    -0.128 NA
ATOM      5  C   UNL     1      20.417  34.396  90.548  0.00  0.00    +0.167 A 
ENDROOT
BRANCH   5   6
ATOM      6  C   UNL     1      21.410  33.921  89.562  0.00  0.00    +0.040 A 
ATOM      7  C   UNL     1      21.557  32.555  89.317  0.00  0.00    +0.013 A 
ATOM      8  C   UNL     1      22.485  32.116  88.396  0.00  0.00    +0.001 A 
ATOM      9  C   UNL     1      23.274  33.026  87.712  0.00  0.00    +0.002 A 
ATOM     10  C   UNL     1      23.140  34.381  87.945  0.00  0.00    +0.023 A 
ATOM     11  C   UNL     1      22.210  34.839  88.868  0.00  0.00    +0.035 A 
BRANCH  11  12
ATOM     12  N   UNL     1      22.073  36.207  89.105  0.00  0.00    -0.357 N 
ATOM     13  H   UNL     1      22.637  36.850  88.617  0.00  0.00    +0.142 HD
ATOM     14  H   UNL     1      21.413  36.529  89.760  0.00  0.00    +0.142 HD
ENDBRANCH  11  12
ENDBRANCH   5   6
BRANCH   1  15
ATOM     15  C   UNL     1      18.319  34.247  89.116  0.00  0.00    +0.122 C 
ATOM     16  C   UNL     1      17.848  32.792  89.136  0.00  0.00    +0.027 C 
ENDBRANCH   1  15
BRANCH   2  17
ATOM     17  S   UNL     1      16.871  35.366  91.870  0.00  0.00    -0.077 S 
BRANCH  17  18
ATOM     18  C   UNL     1      16.769  34.799  93.586  0.00  0.00    +0.173 C 
BRANCH  18  19
ATOM     19  C   UNL     1      16.941  35.973  94.514  0.00  0.00    +0.227 C 
ATOM     20  N   UNL     1      16.436  35.925  95.763  0.00  0.00    -0.285 N 
ATOM     21  H   UNL     1      16.015  35.098  96.093  0.00  0.00    +0.155 HD
ATOM     22  O   UNL     1      17.534  36.963  94.138  0.00  0.00    -0.275 OA
BRANCH  20  23
ATOM     23  C   UNL     1      16.510  37.051  96.591  0.00  0.00    +0.037 A 
ATOM     24  C   UNL     1      17.688  37.344  97.264  0.00  0.00    +0.023 A 
ATOM     25  C   UNL     1      17.758  38.455  98.082  0.00  0.00    +0.002 A 
ATOM     26  C   UNL     1      16.655  39.277  98.229  0.00  0.00    +0.004 A 
ATOM     27  C   UNL     1      15.480  38.988  97.560  0.00  0.00    -0.046 A 
ATOM     28  C   UNL     1      14.281  39.885  97.723  0.00  0.00    +0.044 C 
ATOM     29  C   UNL     1      15.406  37.881  96.736  0.00  0.00    -0.026 A 
ATOM     30  C   UNL     1      14.127  37.570  96.003  0.00  0.00    +0.046 C 
ENDBRANCH  20  23
ENDBRANCH  18  19
ENDBRANCH  17  18
ENDBRANCH   2  17
TORSDOF 7
