REMARK  Name = 
REMARK  7 active torsions:
REMARK  status: ('A' for Active; 'I' for Inactive)
REMARK    1  A    between atoms: N_1  and  C_15
REMARK    2  A    between atoms: C_2  and  C_21
REMARK    3  A    between atoms: C_12  and  O_18
REMARK    4  A    between atoms: O_18  and  C_20
REMARK    5  A    between atoms: C_19  and  C_20
REMARK    6  A    between atoms: C_24  and  O_27
REMARK    7  A    between atoms: C_25  and  O_28
REMARK                            x       y       z     vdW  Elec       q    Type
REMARK                         _______ _______ _______ _____ _____    ______ ____
ROOT
ATOM      1  N   UNL     1      18.343  34.346  90.155  0.00  0.00    -0.244 N 
ATOM      2  C   UNL     1      18.082  32.981  89.696  0.00  0.00    +0.198 C 
ATOM      3  N   UNL     1      19.294  32.405  89.101  0.00  0.00    -0.321 N 
ATOM      4  H   UNL     1      19.562  31.480  89.306  0.00  0.00    +0.148 HD
ATOM      5  C   UNL     1      20.056  33.189  88.242  0.00  0.00    +0.041 A 
ATOM      6  C   UNL     1      20.041  34.583  88.423  0.00  0.00    +0.058 A 
ATOM      7  C   UNL     1      20.808  35.396  87.592  0.00  0.00    +0.015 A 
ATOM      8  C   UNL     1      21.569  34.824  86.593  0.00  0.00    +0.001 A 
ATOM      9  C   UNL     1      21.574  33.450  86.413  0.00  0.00    +0.002 A 
ATOM     10  C   UNL     1      20.821  32.631  87.232  0.00  0.00    +0.024 A 
ATOM     11  C   UNL     1      19.214  35.144  89.505  0.00  0.00    +0.254 C 
ATOM     12  O   UNL     1      19.313  36.317  89.809  0.00  0.00    -0.270 OA
ENDROOT
BRANCH   1  13
ATOM     13  C   UNL     1      17.678  34.830  91.288  0.00  0.00    +0.039 A 
ATOM     14  C   UNL     1      18.356  34.946  92.494  0.00  0.00    +0.027 A 
ATOM     15  C   UNL     1      17.700  35.428  93.610  0.00  0.00    +0.047 A 
ATOM     16  C   UNL     1      16.362  35.785  93.529  0.00  0.00    +0.121 A 
ATOM     17  C   UNL     1      15.683  35.663  92.326  0.00  0.00    +0.047 A 
ATOM     18  C   UNL     1      16.338  35.187  91.208  0.00  0.00    +0.027 A 
BRANCH  16  19
ATOM     19  O   UNL     1      15.716  36.255  94.629  0.00  0.00    -0.492 OA
BRANCH  19  20
ATOM     20  C   UNL     1      16.278  35.925  95.901  0.00  0.00    +0.225 C 
ATOM     21  C   UNL     1      15.478  34.783  96.532  0.00  0.00    +0.048 C 
ENDBRANCH  19  20
ENDBRANCH  16  19
ENDBRANCH   1  13
BRANCH   2  22
ATOM     22  C   UNL     1      16.982  33.002  88.667  0.00  0.00    -0.005 A 
ATOM     23  C   UNL     1      15.703  33.377  89.032  0.00  0.00    +0.056 A 
ATOM     24  C   UNL     1      14.691  33.402  88.086  0.00  0.00    +0.159 A 
ATOM     25  C   UNL     1      14.964  33.038  86.770  0.00  0.00    +0.158 A 
ATOM     26  C   UNL     1      16.248  32.657  86.412  0.00  0.00    +0.049 A 
ATOM     27  C   UNL     1      17.254  32.641  87.360  0.00  0.00    +0.011 A 
BRANCH  24  28
ATOM     28  O   UNL     1      13.433  33.776  88.442  0.00  0.00    -0.503 OA
ATOM     29  H   UNL     1      12.750  33.792  87.801  0.00  0.00    +0.292 HD
ENDBRANCH  24  28
BRANCH  25  30
ATOM     30  O   UNL     1      13.974  33.056  85.839  0.00  0.00    -0.503 OA
ATOM     31  H   UNL     1      14.159  32.811  84.954  0.00  0.00    +0.292 HD
ENDBRANCH  25  30
ENDBRANCH   2  22
TORSDOF 6
