REMARK  Name = 
REMARK  17 active torsions:
REMARK  status: ('A' for Active; 'I' for Inactive)
REMARK    1  A    between atoms: C_1  and  C_2
REMARK    2  A    between atoms: C_1  and  C_20
REMARK    3  A    between atoms: C_2  and  C_3
REMARK    4  A    between atoms: C_3  and  C_4
REMARK    5  A    between atoms: C_4  and  N_5
REMARK    6  A    between atoms: C_6  and  C_8
REMARK    7  A    between atoms: C_8  and  C_18
REMARK    8  A    between atoms: C_9  and  C_10
REMARK    9  A    between atoms: C_12  and  O_17
REMARK   10  A    between atoms: C_13  and  O_16
REMARK   11  A    between atoms: C_20  and  C_21
REMARK   12  A    between atoms: C_21  and  N_23
REMARK   13  A    between atoms: C_22  and  C_26
REMARK   14  A    between atoms: C_25  and  C_28
REMARK   15  A    between atoms: C_26  and  C_35
REMARK   16  A    between atoms: C_30  and  O_34
REMARK   17  A    between atoms: C_31  and  O_33
REMARK                            x       y       z     vdW  Elec       q    Type
REMARK                         _______ _______ _______ _____ _____    ______ ____
ROOT
ATOM      1  C   UNL     1      14.863  31.586  85.444  0.00  0.00    +0.002 C 
ENDROOT
BRANCH   1   2
ATOM      2  C   UNL     1      16.391  31.501  85.457  0.00  0.00    +0.002 C 
BRANCH   2   3
ATOM      3  C   UNL     1      16.892  31.134  84.058  0.00  0.00    +0.019 C 
BRANCH   3   4
ATOM      4  C   UNL     1      17.968  32.133  83.626  0.00  0.00    +0.104 C 
BRANCH   4   5
ATOM      5  N   UNL     1      18.508  32.810  84.808  0.00  0.00    -0.311 N 
ATOM      6  H   UNL     1      17.960  33.472  85.289  0.00  0.00    +0.149 HD
ATOM      7  C   UNL     1      19.754  32.527  85.236  0.00  0.00    +0.254 C 
ATOM      8  O   UNL     1      20.432  31.710  84.641  0.00  0.00    -0.269 OA
BRANCH   7   9
ATOM      9  C   UNL     1      20.296  33.207  86.423  0.00  0.00    +0.114 C 
ATOM     10  C   UNL     1      19.714  33.009  87.657  0.00  0.00    +0.032 C 
BRANCH  10  11
ATOM     11  C   UNL     1      20.153  33.797  88.809  0.00  0.00    -0.020 A 
ATOM     12  C   UNL     1      21.012  33.233  89.761  0.00  0.00    +0.012 A 
ATOM     13  C   UNL     1      21.428  33.979  90.841  0.00  0.00    +0.050 A 
ATOM     14  C   UNL     1      20.990  35.289  90.995  0.00  0.00    +0.158 A 
ATOM     15  C   UNL     1      20.130  35.858  90.054  0.00  0.00    +0.159 A 
ATOM     16  C   UNL     1      19.712  35.120  88.966  0.00  0.00    +0.057 A 
BRANCH  15  17
ATOM     17  O   UNL     1      19.704  37.140  90.209  0.00  0.00    -0.503 OA
ATOM     18  H   UNL     1      19.127  37.522  89.577  0.00  0.00    +0.292 HD
ENDBRANCH  15  17
BRANCH  14  19
ATOM     19  O   UNL     1      21.400  36.018  92.064  0.00  0.00    -0.503 OA
ATOM     20  H   UNL     1      21.106  36.901  92.169  0.00  0.00    +0.292 HD
ENDBRANCH  14  19
ENDBRANCH  10  11
BRANCH   9  21
ATOM     21  C   UNL     1      21.429  34.073  86.298  0.00  0.00    +0.104 C 
ATOM     22  N   UNL     1      22.328  34.761  86.198  0.00  0.00    -0.191 NA
ENDBRANCH   9  21
ENDBRANCH   7   9
ENDBRANCH   4   5
ENDBRANCH   3   4
ENDBRANCH   2   3
ENDBRANCH   1   2
BRANCH   1  23
ATOM     23  C   UNL     1      14.399  32.593  86.498  0.00  0.00    +0.019 C 
BRANCH  23  24
ATOM     24  C   UNL     1      15.536  33.570  86.805  0.00  0.00    +0.104 C 
BRANCH  24  25
ATOM     25  N   UNL     1      15.401  34.060  88.179  0.00  0.00    -0.311 N 
ATOM     26  H   UNL     1      14.768  34.786  88.383  0.00  0.00    +0.149 HD
ATOM     27  C   UNL     1      16.143  33.518  89.164  0.00  0.00    +0.254 C 
ATOM     28  O   UNL     1      16.926  32.620  88.913  0.00  0.00    -0.269 OA
BRANCH  27  29
ATOM     29  C   UNL     1      16.008  34.011  90.544  0.00  0.00    +0.114 C 
ATOM     30  C   UNL     1      17.105  34.031  91.379  0.00  0.00    +0.032 C 
BRANCH  30  31
ATOM     31  C   UNL     1      16.942  34.381  92.791  0.00  0.00    -0.020 A 
ATOM     32  C   UNL     1      17.324  35.650  93.251  0.00  0.00    +0.057 A 
ATOM     33  C   UNL     1      17.168  35.973  94.582  0.00  0.00    +0.159 A 
ATOM     34  C   UNL     1      16.632  35.039  95.470  0.00  0.00    +0.158 A 
ATOM     35  C   UNL     1      16.253  33.781  95.017  0.00  0.00    +0.050 A 
ATOM     36  C   UNL     1      16.403  33.449  93.690  0.00  0.00    +0.012 A 
BRANCH  34  37
ATOM     37  O   UNL     1      16.480  35.360  96.781  0.00  0.00    -0.503 OA
ATOM     38  H   UNL     1      16.735  36.208  97.088  0.00  0.00    +0.292 HD
ENDBRANCH  34  37
BRANCH  33  39
ATOM     39  O   UNL     1      17.539  37.202  95.032  0.00  0.00    -0.503 OA
ATOM     40  H   UNL     1      17.899  37.830  94.437  0.00  0.00    +0.292 HD
ENDBRANCH  33  39
ENDBRANCH  30  31
BRANCH  29  41
ATOM     41  C   UNL     1      14.737  34.469  91.020  0.00  0.00    +0.104 C 
ATOM     42  N   UNL     1      13.730  34.833  91.396  0.00  0.00    -0.191 NA
ENDBRANCH  29  41
ENDBRANCH  27  29
ENDBRANCH  24  25
ENDBRANCH  23  24
ENDBRANCH   1  23
TORSDOF 17
