REMARK  Name = 
REMARK  6 active torsions:
REMARK  status: ('A' for Active; 'I' for Inactive)
REMARK    1  A    between atoms: C_1  and  C_13
REMARK    2  A    between atoms: C_6  and  S_17
REMARK    3  A    between atoms: S_17  and  C_18
REMARK    4  A    between atoms: C_18  and  C_19
REMARK    5  A    between atoms: N_20  and  C_22
REMARK    6  A    between atoms: C_22  and  C_23
REMARK                            x       y       z     vdW  Elec       q    Type
REMARK                         _______ _______ _______ _____ _____    ______ ____
ROOT
ATOM      1  C   UNL     1      17.089  33.069  87.330  0.00  0.00    +0.002 A 
ATOM      2  C   UNL     1      16.888  33.477  88.718  0.00  0.00    +0.055 A 
ATOM      3  C   UNL     1      17.840  33.638  89.761  0.00  0.00    +0.129 A 
ATOM      4  N   UNL     1      19.181  33.394  89.526  0.00  0.00    -0.343 N 
ATOM      5  H   UNL     1      19.480  33.107  88.633  0.00  0.00    +0.144 HD
ATOM      6  H   UNL     1      19.837  33.507  90.252  0.00  0.00    +0.144 HD
ATOM      7  N   UNL     1      17.432  34.022  90.959  0.00  0.00    -0.207 NA
ATOM      8  C   UNL     1      16.153  34.264  91.222  0.00  0.00    +0.191 A 
ATOM      9  N   UNL     1      15.221  34.126  90.289  0.00  0.00    -0.214 NA
ATOM     10  C   UNL     1      15.551  33.751  89.068  0.00  0.00    +0.115 A 
ATOM     11  S   UNL     1      14.655  33.458  87.566  0.00  0.00    -0.076 S 
ATOM     12  C   UNL     1      16.014  32.988  86.514  0.00  0.00    +0.056 A 
ENDROOT
BRANCH   1  13
ATOM     13  C   UNL     1      18.447  32.751  86.827  0.00  0.00    -0.017 A 
ATOM     14  C   UNL     1      19.275  33.768  86.356  0.00  0.00    +0.008 A 
ATOM     15  C   UNL     1      20.540  33.467  85.895  0.00  0.00    +0.001 A 
ATOM     16  C   UNL     1      20.981  32.155  85.886  0.00  0.00    +0.000 A 
ATOM     17  C   UNL     1      20.161  31.140  86.345  0.00  0.00    +0.001 A 
ATOM     18  C   UNL     1      18.897  31.431  86.816  0.00  0.00    +0.008 A 
ENDBRANCH   1  13
BRANCH   8  19
ATOM     19  S   UNL     1      15.686  34.772  92.843  0.00  0.00    -0.077 S 
BRANCH  19  20
ATOM     20  C   UNL     1      17.280  35.367  93.458  0.00  0.00    +0.173 C 
BRANCH  20  21
ATOM     21  C   UNL     1      17.178  35.642  94.937  0.00  0.00    +0.224 C 
ATOM     22  O   UNL     1      16.913  34.742  95.704  0.00  0.00    -0.275 OA
ATOM     23  N   UNL     1      17.380  36.890  95.406  0.00  0.00    -0.308 N 
ATOM     24  H   UNL     1      17.595  37.621  94.783  0.00  0.00    +0.149 HD
BRANCH  23  25
ATOM     25  C   UNL     1      17.280  37.158  96.843  0.00  0.00    +0.178 C 
BRANCH  25  26
ATOM     26  C   UNL     1      16.173  38.150  97.093  0.00  0.00    +0.122 A 
ATOM     27  C   UNL     1      15.433  38.236  98.212  0.00  0.00    +0.046 A 
ATOM     28  C   UNL     1      14.520  39.298  98.019  0.00  0.00    +0.041 A 
ATOM     29  C   UNL     1      14.757  39.798  96.793  0.00  0.00    +0.195 A 
ATOM     30  O   UNL     1      15.764  39.102  96.239  0.00  0.00    -0.466 OA
ENDBRANCH  25  26
ENDBRANCH  23  25
ENDBRANCH  20  21
ENDBRANCH  19  20
ENDBRANCH   8  19
TORSDOF 6
