#	Name:			<unnamed>
#	Creating user name:	yxyuan
#	Creation time:		Sat Feb  4 17:37:24 2012

#	Modifying user name:	yxyuan
#	Modification time:	Sat Feb  4 17:40:32 2012

@<TRIPOS>MOLECULE
****
    5     4     1     0     0
SMALL
USER_CHARGES
INVALID_CHARGES

@<TRIPOS>ATOM
      1 H3         56.0100   24.8848   45.6445 H.spc     1 <1>         0.0000 
      2 H4         57.6439   25.3939   46.1901 H.spc     1 <1>         0.0000 
      3 C25        57.0310   25.1290   45.3160 C.3       1 <1>         0.0660 
      4 H21        57.4716   24.2574   44.8098 H         1 <1>         0.0850 
      5 H22        56.9985   25.9798   44.6196 H         1 <1>         0.0610 
@<TRIPOS>BOND
     1    3    1 1    
     2    3    2 1    
     3    3    5 1    
     4    3    4 1    
@<TRIPOS>SUBSTRUCTURE
     1 ****        3 TEMP              0 ****  ****    0 ROOT 
