#	Name:			<unnamed>
#	Creating user name:	yxyuan
#	Creation time:		Fri Feb  3 18:54:21 2012

#	Modifying user name:	yxyuan
#	Modification time:	Fri Feb  3 19:56:18 2012

@<TRIPOS>MOLECULE
****
    5     4     1     0     0
SMALL
USER_CHARGES
INVALID_CHARGES

@<TRIPOS>ATOM
      1 H2         59.7375   26.5591   46.9264 H.spc     1 <1>         0.0000 
      2 H3         58.2888   25.6066   46.4687 H.spc     1 <1>         0.0000 
      3 C23        59.3260   25.8490   46.1940 C.3       1 <1>        -0.0540 
      4 H17        59.9257   24.9269   46.1912 H.spc     1 <1>         0.1020 
      5 H18        59.3400   26.2986   45.1902 H.spc     1 <1>         0.0710 
@<TRIPOS>BOND
     1    3    1 1    
     2    3    2 1    
     3    3    5 1    
     4    3    4 1    
@<TRIPOS>SUBSTRUCTURE
     1 ****        3 TEMP              0 ****  ****    0 ROOT 
