@<TRIPOS>MOLECULE
17504821
 54 56 0 0 0
SMALL
GASTEIGER

@<TRIPOS>ATOM
      1  C         66.3390   14.9510   13.1380 C.ar    1  UNL1        0.1654
      2  C         65.6280   16.1260   13.4390 C.ar    1  UNL1        0.1962
      3  C         65.3480   16.4170   14.7840 C.ar    1  UNL1       -0.0128
      4  C         65.8180   15.6020   15.8160 C.ar    1  UNL1       -0.0485
      5  C         66.5100   14.4240   15.5360 C.ar    1  UNL1        0.0070
      6  C         66.7760   14.1180   14.1920 C.ar    1  UNL1       -0.0067
      7  C         67.0020   13.5660   16.6760 C.2     1  UNL1        0.0822
      8  S         68.4220   13.9870   17.4990 S.2     1  UNL1       -0.0348
      9  N         66.2400   12.4340   17.0330 N.am    1  UNL1       -0.3194
     10  C         66.8170   11.2900   17.7710 C.3     1  UNL1        0.0362
     11  C         66.2690    9.9530   17.2650 C.3     1  UNL1        0.0634
     12  O         64.8350    9.9390   17.3000 O.3     1  UNL1       -0.3767
     13  C         64.3080   10.9730   16.4570 C.3     1  UNL1        0.0634
     14  C         64.7710   12.3590   16.9220 C.3     1  UNL1        0.0362
     15  O         66.7070   14.4600   11.9100 O.3     1  UNL1       -0.4885
     16  C         69.0100   13.7690   11.9280 C.3     1  UNL1       -0.0307
     17  C         67.5600   13.3270   11.8660 C.3     1  UNL1        0.0870
     18  O         65.2100   16.9830   12.4350 O.3     1  UNL1       -0.3588
     19  S         63.8540   16.6430   11.5800 S.3     1  UNL1       -0.0127
     20  O         62.8750   16.1150   12.5060 O.3     1  UNL1       -0.2634
     21  O         64.2530   15.9300   10.3810 O.3     1  UNL1       -0.2634
     22  C         63.1850   18.1790   11.0010 C.ar    1  UNL1        0.1258
     23  C         61.8020   18.3080   10.8200 C.ar    1  UNL1        0.1207
     24  C         61.2340   19.5220   10.4090 C.ar    1  UNL1       -0.0318
     25  C         62.0610   20.6160   10.1690 C.ar    1  UNL1       -0.0596
     26  C         63.4440   20.4870   10.3080 C.ar    1  UNL1       -0.0598
     27  C         64.0100   19.2710   10.7140 C.ar    1  UNL1       -0.0335
     28  N         60.8930   17.1880   10.9890 N.4     1  UNL1       -0.1268
     29  O         60.0300   17.2840   11.8640 O.3     1  UNL1       -0.2624
     30  O         61.0110   16.2560   10.1860 O.3     1  UNL1       -0.2624
     31 H          64.7836   17.2497   15.0144 H       1  UNL1        0.0656
     32 H          65.6513   15.8746   16.7973 H       1  UNL1        0.0625
     33 H          67.3053   13.2609   13.9678 H       1  UNL1        0.0662
     34 H          66.5784   11.3916   18.8091 H       1  UNL1        0.0486
     35 H          67.8760   11.2951   17.6177 H       1  UNL1        0.0486
     36 H          66.5960    9.7995   16.2578 H       1  UNL1        0.0575
     37 H          66.6332    9.1729   17.9003 H       1  UNL1        0.0575
     38 H          64.6446   10.8110   15.4543 H       1  UNL1        0.0575
     39 H          63.2397   10.9387   16.5071 H       1  UNL1        0.0575
     40 H          64.3398   12.5657   17.8792 H       1  UNL1        0.0486
     41 H          64.4540   13.0779   16.1957 H       1  UNL1        0.0486
     42 H          69.6466   12.9096   11.8944 H       1  UNL1        0.0262
     43 H          69.1811   14.3042   12.8386 H       1  UNL1        0.0262
     44 H          69.2250   14.4049   11.0948 H       1  UNL1        0.0262
     45 H          67.3912   12.7911   10.9554 H       1  UNL1        0.0694
     46 H          67.3487   12.6945   12.7027 H       1  UNL1        0.0694
     47 H          62.0583   15.9036   12.0273 H       1  UNL1        0.2437
     48 H          64.9149   16.4511    9.9001 H       1  UNL1        0.2437
     49 H          60.2127   19.6040   10.2855 H       1  UNL1        0.0640
     50 H          61.6521   21.5211    9.8887 H       1  UNL1        0.0618
     51 H          64.0553   21.2946   10.1099 H       1  UNL1        0.0618
     52 H          65.0344   19.1815   10.8011 H       1  UNL1        0.0638
     53 H          59.4911   16.4776   11.8764 H       1  UNL1        0.2470
     54 H          61.7693   16.4240    9.6048 H       1  UNL1        0.2470
@<TRIPOS>BOND
     1    25    26   ar
     2    25    24   ar
     3    30    28    1
     4    26    27   ar
     5    21    19    1
     6    24    23   ar
     7    27    22   ar
     8    23    28    1
     9    23    22   ar
    10    28    29    1
    11    22    19    1
    12    19    18    1
    13    19    20    1
    14    17    15    1
    15    17    16    1
    16    15     1    1
    17    18     2    1
    18     1     2   ar
    19     1     6   ar
    20     2     3   ar
    21     6     5   ar
    22     3     4   ar
    23     5     4   ar
    24     5     7    1
    25    13    14    1
    26    13    12    1
    27     7     9    1
    28     7     8    2
    29    14     9    1
    30     9    10    1
    31    11    12    1
    32    11    10    1
    33     3    31    1
    34     4    32    1
    35     6    33    1
    36    10    34    1
    37    10    35    1
    38    11    36    1
    39    11    37    1
    40    13    38    1
    41    13    39    1
    42    14    40    1
    43    14    41    1
    44    16    42    1
    45    16    43    1
    46    16    44    1
    47    17    45    1
    48    17    46    1
    49    20    47    1
    50    21    48    1
    51    24    49    1
    52    25    50    1
    53    26    51    1
    54    27    52    1
    55    29    53    1
    56    30    54    1
