@<TRIPOS>MOLECULE
26731605
 38 40 0 0 0
SMALL
GASTEIGER

@<TRIPOS>ATOM
      1  C         65.7580   15.6960   12.8470 C.3     1  UNL1        0.1015
      2  C         64.5590   16.4230   12.3090 C.ar    1  UNL1        0.1226
      3  N         63.2730   16.0440   12.6330 N.ar    1  UNL1       -0.3411
      4  C         62.4010   16.8980   12.0080 C.ar    1  UNL1        0.0662
      5  C         63.2180   17.7840   11.3190 C.ar    1  UNL1        0.0891
      6  C         62.6350   18.8170   10.5720 C.ar    1  UNL1       -0.0342
      7  C         61.2360   18.9160   10.5410 C.ar    1  UNL1       -0.0596
      8  C         60.4400   18.0030   11.2400 C.ar    1  UNL1       -0.0597
      9  C         61.0060   16.9710   11.9960 C.ar    1  UNL1       -0.0363
     10  N         64.5440   17.4690   11.5030 N.ar    1  UNL1       -0.2316
     11  S         65.9370   16.2660   15.5520 S.2     1  UNL1       -0.0391
     12  C         65.5850   15.1940   14.2900 C.2     1  UNL1        0.0686
     13  N         65.1320   13.8930   14.4420 N.am    1  UNL1       -0.3113
     14  C         65.4350   12.9540   15.4470 C.ar    1  UNL1        0.0315
     15  C         66.7270   12.7720   15.9440 C.ar    1  UNL1       -0.0405
     16  C         66.9910   11.7670   16.8780 C.ar    1  UNL1       -0.0600
     17  C         65.9600   10.9430   17.3270 C.ar    1  UNL1       -0.0616
     18  C         64.6690   11.1140   16.8310 C.ar    1  UNL1       -0.0600
     19  C         64.4120   12.1020   15.8770 C.ar    1  UNL1       -0.0405
     20  C         66.0830   14.5030   11.9630 C.3     1  UNL1       -0.0196
     21  N         66.3520   13.5130   11.2300 N.4     1  UNL1        0.2193
     22 H          66.5533   16.4118   12.8485 H       1  UNL1        0.0499
     23 H          63.0237   15.2892   13.2138 H       1  UNL1        0.1671
     24 H          63.2225   19.4904   10.0558 H       1  UNL1        0.0639
     25 H          60.7895   19.6705    9.9966 H       1  UNL1        0.0618
     26 H          59.4128   18.0925   11.1972 H       1  UNL1        0.0618
     27 H          60.4230   16.2982   12.5180 H       1  UNL1        0.0639
     28 H          64.5085   13.5801   13.7473 H       1  UNL1        0.1524
     29 H          67.4920   13.3838   15.6193 H       1  UNL1        0.0636
     30 H          67.9499   11.6345   17.2358 H       1  UNL1        0.0618
     31 H          66.1525   10.2079   18.0253 H       1  UNL1        0.0618
     32 H          63.9026   10.5108   17.1684 H       1  UNL1        0.0618
     33 H          63.4619   12.2039   15.4872 H       1  UNL1        0.0636
     34 H          66.0438   15.1325   11.0987 H       1  UNL1        0.0824
     35 H          66.1227   13.8736   12.8274 H       1  UNL1        0.0824
     36 H          66.3889   13.8116   10.2554 H       1  UNL1        0.1994
     37 H          65.6293   12.8018   11.3406 H       1  UNL1        0.1994
     38 H          67.2554   13.1247   11.5011 H       1  UNL1        0.1994
@<TRIPOS>BOND
     1     7     6   ar
     2     7     8   ar
     3     6     5   ar
     4    21    20    1
     5     8     9   ar
     6     5    10   ar
     7     5     4   ar
     8    10     2   ar
     9    20     1    1
    10     9     4   ar
    11     4     3   ar
    12     2     3   ar
    13     2     1    1
    14     1    12    1
    15    12    13    1
    16    12    11    2
    17    13    14    1
    18    14    19   ar
    19    14    15   ar
    20    19    18   ar
    21    15    16   ar
    22    18    17   ar
    23    16    17   ar
    24     1    22    1
    25     3    23    1
    26     6    24    1
    27     7    25    1
    28     8    26    1
    29     9    27    1
    30    13    28    1
    31    15    29    1
    32    16    30    1
    33    17    31    1
    34    18    32    1
    35    19    33    1
    36    20    34    1
    37    20    35    1
    38    21    36    1
    39    21    37    1
    40    21    38    1
