@<TRIPOS>MOLECULE
26731605
 38 40 0 0 0
SMALL
GASTEIGER

@<TRIPOS>ATOM
      1  C         65.7320   15.6380   13.0090 C.3     1  UNL1        0.1015
      2  C         64.5570   16.3800   12.4460 C.ar    1  UNL1        0.1226
      3  N         63.2490   16.0140   12.7000 N.ar    1  UNL1       -0.3411
      4  C         62.4230   16.8880   12.0490 C.ar    1  UNL1        0.0662
      5  C         63.2840   17.7740   11.4110 C.ar    1  UNL1        0.0891
      6  C         62.7510   18.8200   10.6460 C.ar    1  UNL1       -0.0342
      7  C         61.3590   18.9370   10.5480 C.ar    1  UNL1       -0.0596
      8  C         60.5170   18.0310   11.1960 C.ar    1  UNL1       -0.0597
      9  C         61.0310   16.9810   11.9680 C.ar    1  UNL1       -0.0363
     10  N         64.5960   17.4420   11.6580 N.ar    1  UNL1       -0.2316
     11  S         65.7600   16.1370   15.7220 S.2     1  UNL1       -0.0391
     12  C         65.4580   15.1050   14.4130 C.2     1  UNL1        0.0686
     13  N         65.0330   13.7860   14.5160 N.am    1  UNL1       -0.3113
     14  C         65.4330   12.8420   15.4840 C.ar    1  UNL1        0.0315
     15  C         64.4690   12.0080   16.0550 C.ar    1  UNL1       -0.0405
     16  C         64.8520   11.0430   16.9920 C.ar    1  UNL1       -0.0600
     17  C         66.1840   10.9480   17.3990 C.ar    1  UNL1       -0.0616
     18  C         67.1310   11.8250   16.8860 C.ar    1  UNL1       -0.0600
     19  C         66.7540   12.7710   15.9340 C.ar    1  UNL1       -0.0405
     20  C         66.1140   14.5150   12.0590 C.3     1  UNL1       -0.0196
     21  N         66.4310   13.5820   11.2720 N.4     1  UNL1        0.2193
     22 H          66.5508   16.3205   13.1021 H       1  UNL1        0.0499
     23 H          62.9609   15.2536   13.2550 H       1  UNL1        0.1671
     24 H          63.3712   19.4900   10.1649 H       1  UNL1        0.0639
     25 H          60.9502   19.7026    9.9897 H       1  UNL1        0.0618
     26 H          59.4946   18.1371   11.1043 H       1  UNL1        0.0618
     27 H          60.4134   16.3107   12.4520 H       1  UNL1        0.0639
     28 H          64.3844   13.4783   13.8423 H       1  UNL1        0.1524
     29 H          63.4772   12.1036   15.7863 H       1  UNL1        0.0636
     30 H          64.1474   10.3988   17.3840 H       1  UNL1        0.0618
     31 H          66.4650   10.2262   18.0810 H       1  UNL1        0.0618
     32 H          68.1101   11.7765   17.2084 H       1  UNL1        0.0618
     33 H          67.4576   13.4255   15.5578 H       1  UNL1        0.0636
     34 H          65.2648   14.7417   11.4488 H       1  UNL1        0.0824
     35 H          66.9639   14.2890   12.6685 H       1  UNL1        0.0824
     36 H          65.7527   13.5333   10.5117 H       1  UNL1        0.1994
     37 H          66.4376   12.6970   11.7790 H       1  UNL1        0.1994
     38 H          67.3591   13.7611   10.8887 H       1  UNL1        0.1994
@<TRIPOS>BOND
     1     7     6   ar
     2     7     8   ar
     3     6     5   ar
     4     8     9   ar
     5    21    20    1
     6     5    10   ar
     7     5     4   ar
     8    10     2   ar
     9     9     4   ar
    10     4     3   ar
    11    20     1    1
    12     2     3   ar
    13     2     1    1
    14     1    12    1
    15    12    13    1
    16    12    11    2
    17    13    14    1
    18    14    19   ar
    19    14    15   ar
    20    19    18   ar
    21    15    16   ar
    22    18    17   ar
    23    16    17   ar
    24     1    22    1
    25     3    23    1
    26     6    24    1
    27     7    25    1
    28     8    26    1
    29     9    27    1
    30    13    28    1
    31    15    29    1
    32    16    30    1
    33    17    31    1
    34    18    32    1
    35    19    33    1
    36    20    34    1
    37    20    35    1
    38    21    36    1
    39    21    37    1
    40    21    38    1
