@<TRIPOS>MOLECULE
11532990
 47 48 0 0 0
SMALL
GASTEIGER

@<TRIPOS>ATOM
      1  C         62.7190   16.8490   12.4230 C.3     1  UNL1        0.1198
      2  C         62.3050   17.8100   11.3250 C.ar    1  UNL1       -0.0121
      3  C         63.2140   18.7460   10.8000 C.ar    1  UNL1       -0.0311
      4  C         62.8310   19.6220    9.7830 C.ar    1  UNL1        0.0755
      5  C         61.5380   19.5540    9.2610 C.ar    1  UNL1        0.1380
      6  C         60.6120   18.6620    9.7910 C.ar    1  UNL1       -0.0180
      7  C         60.9940   17.7940   10.8220 C.ar    1  UNL1       -0.0524
      8  N         63.7100   20.5860    9.2640 N.am    1  UNL1       -0.2852
      9  C         64.3030   21.5410   10.0380 C.2     1  UNL1        0.2042
     10  O         64.1810   21.6830   11.2530 O.2     1  UNL1       -0.2792
     11  O         61.1980   20.4300    8.2680 O.3     1  UNL1       -0.5049
     12  O         61.6860   15.8810   12.6420 O.3     1  UNL1       -0.3819
     13  C         64.0190   16.0750   12.0890 C.3     1  UNL1       -0.0022
     14  N         64.4990   15.3330   13.3050 N.4     1  UNL1        0.2343
     15  C         65.7180   14.4700   13.2280 C.3     1  UNL1        0.0004
     16  C         66.3680   14.5520   11.8480 C.3     1  UNL1       -0.0173
     17  C         68.4430   14.8890   16.5740 C.ar    1  UNL1        0.1201
     18  C         68.6630   13.9300   15.5900 C.ar    1  UNL1       -0.0195
     19  C         67.7780   13.8170   14.5130 C.ar    1  UNL1       -0.0498
     20  C         66.6670   14.6700   14.3890 C.ar    1  UNL1        0.0001
     21  C         66.4860   15.6630   15.3640 C.ar    1  UNL1       -0.0498
     22  C         67.3710   15.7730   16.4410 C.ar    1  UNL1       -0.0195
     23  C         69.9630   13.9290   18.1010 C.3     1  UNL1        0.0788
     24  O         69.2310   15.0740   17.6760 O.3     1  UNL1       -0.4951
     25 H          62.8904   17.4480   13.2929 H       1  UNL1        0.0698
     26 H          64.1761   18.7856   11.1713 H       1  UNL1        0.0641
     27 H          59.6469   18.6396    9.4261 H       1  UNL1        0.0655
     28 H          60.3042   17.1354   11.2163 H       1  UNL1        0.0622
     29 H          63.9072   20.5725    8.2996 H       1  UNL1        0.1546
     30 H          64.9174   22.2136    9.5531 H       1  UNL1        0.1255
     31 H          61.8386   21.0221    7.9260 H       1  UNL1        0.2922
     32 H          61.5574   15.3573   11.8357 H       1  UNL1        0.2105
     33 H          64.7728   16.7663   11.7747 H       1  UNL1        0.0843
     34 H          63.8207   15.3749   11.3045 H       1  UNL1        0.0843
     35 H          63.7316   14.7309   13.6033 H       1  UNL1        0.2021
     36 H          64.7842   16.0817   13.9363 H       1  UNL1        0.2021
     37 H          65.4014   13.4541   13.3404 H       1  UNL1        0.0901
     38 H          66.7087   15.5511   11.6730 H       1  UNL1        0.0288
     39 H          65.6518   14.2832   11.0999 H       1  UNL1        0.0288
     40 H          67.1988   13.8791   11.8045 H       1  UNL1        0.0288
     41 H          69.4794   13.3020   15.6550 H       1  UNL1        0.0654
     42 H          67.9435   13.0938   13.7956 H       1  UNL1        0.0623
     43 H          65.6924   16.3181   15.2854 H       1  UNL1        0.0623
     44 H          67.2302   16.5150   17.1444 H       1  UNL1        0.0654
     45 H          70.5440   14.1774   18.9645 H       1  UNL1        0.0660
     46 H          70.6131   13.6088   17.3137 H       1  UNL1        0.0660
     47 H          69.2820   13.1403   18.3442 H       1  UNL1        0.0660
@<TRIPOS>BOND
     1    11     5    1
     2     5     4   ar
     3     5     6   ar
     4     8     4    1
     5     8     9   am
     6     4     3   ar
     7     6     7   ar
     8     9    10    2
     9     3     2   ar
    10     7     2   ar
    11     2     1    1
    12    16    15    1
    13    13     1    1
    14    13    14    1
    15     1    12    1
    16    15    14    1
    17    15    20    1
    18    20    19   ar
    19    20    21   ar
    20    19    18   ar
    21    21    22   ar
    22    18    17   ar
    23    22    17   ar
    24    17    24    1
    25    24    23    1
    26     1    25    1
    27     3    26    1
    28     6    27    1
    29     7    28    1
    30     8    29    1
    31     9    30    1
    32    11    31    1
    33    12    32    1
    34    13    33    1
    35    13    34    1
    36    14    35    1
    37    14    36    1
    38    15    37    1
    39    16    38    1
    40    16    39    1
    41    16    40    1
    42    18    41    1
    43    19    42    1
    44    21    43    1
    45    22    44    1
    46    23    45    1
    47    23    46    1
    48    23    47    1
