@<TRIPOS>MOLECULE
22412382
 43 44 0 0 0
SMALL
GASTEIGER

@<TRIPOS>ATOM
      1  C         66.4530   14.8000   14.2100 C.ar    1  UNL1        0.0337
      2  C         66.3930   14.4560   12.8430 C.ar    1  UNL1       -0.0398
      3  C         65.7120   15.2440   11.8960 C.ar    1  UNL1       -0.0513
      4  C         65.0750   16.4160   12.2960 C.ar    1  UNL1       -0.0053
      5  C         65.1620   16.8120   13.6310 C.ar    1  UNL1       -0.0513
      6  C         65.8400   16.0140   14.5680 C.ar    1  UNL1       -0.0398
      7  C         68.5370   13.9070   15.1370 C.3     1  UNL1        0.0058
      8  N         67.0680   13.9560   15.1800 N.pl3   1  UNL1       -0.3032
      9  C         66.4510   12.8940   15.8990 C.ar    1  UNL1        0.0337
     10  C         65.0740   12.6130   15.8070 C.ar    1  UNL1       -0.0404
     11  C         64.4950   11.5420   16.4980 C.ar    1  UNL1       -0.0600
     12  C         65.2790   10.7310   17.3090 C.ar    1  UNL1       -0.0616
     13  C         66.6400   10.9900   17.4280 C.ar    1  UNL1       -0.0600
     14  C         67.2170   12.0560   16.7260 C.ar    1  UNL1       -0.0404
     15  C         64.3010   17.2120   11.3100 C.2     1  UNL1        0.0528
     16  N         63.1090   17.6460   11.5860 N.2     1  UNL1       -0.1877
     17  N         62.4440   18.3620   10.6230 N.am    1  UNL1       -0.2068
     18  C         62.4070   19.7560   10.7400 C.2     1  UNL1        0.2373
     19  O         62.8880   20.3800   11.6870 O.2     1  UNL1       -0.2739
     20  C         61.6610   20.4960    9.6440 C.3     1  UNL1        0.0655
     21  C         60.6620   19.5630    8.9810 C.3     1  UNL1       -0.0269
     22  N         59.8330   18.7880    8.4300 N.4     1  UNL1        0.2189
     23 H          66.8657   13.5952   12.5258 H       1  UNL1        0.0636
     24 H          65.6848   14.9534   10.9061 H       1  UNL1        0.0624
     25 H          64.7254   17.6972   13.9324 H       1  UNL1        0.0624
     26 H          65.8897   16.3286   15.5496 H       1  UNL1        0.0636
     27 H          68.9055   14.7416   14.5779 H       1  UNL1        0.0432
     28 H          68.8500   12.9975   14.6682 H       1  UNL1        0.0432
     29 H          68.9245   13.9463   16.1336 H       1  UNL1        0.0432
     30 H          64.4768   13.2116   15.2153 H       1  UNL1        0.0636
     31 H          63.4844   11.3547   16.4048 H       1  UNL1        0.0618
     32 H          64.8540    9.9414   17.8198 H       1  UNL1        0.0618
     33 H          67.2262   10.3956   18.0348 H       1  UNL1        0.0618
     34 H          68.2300   12.2300   16.8187 H       1  UNL1        0.0636
     35 H          64.7176   17.4238   10.3899 H       1  UNL1        0.0851
     36 H          62.0041   17.9068    9.8690 H       1  UNL1        0.1772
     37 H          61.1412   21.3294   10.0684 H       1  UNL1        0.0412
     38 H          62.3606   20.8422    8.9121 H       1  UNL1        0.0412
     39 H          60.4127   19.1507    9.9364 H       1  UNL1        0.0818
     40 H          60.9109   19.9757    8.0257 H       1  UNL1        0.0818
     41 H          59.3858   18.2082    9.1400 H       1  UNL1        0.1994
     42 H          60.3186   18.1914    7.7602 H       1  UNL1        0.1994
     43 H          59.1244   19.3379    7.9443 H       1  UNL1        0.1994
@<TRIPOS>BOND
     1    22    21    1
     2    21    20    1
     3    20    18    1
     4    17    18   am
     5    17    16    1
     6    18    19    2
     7    15    16    2
     8    15     4    1
     9     3     4   ar
    10     3     2   ar
    11     4     5   ar
    12     2     1   ar
    13     5     6   ar
    14     1     6   ar
    15     1     8    1
    16     7     8    1
    17     8     9    1
    18    10     9   ar
    19    10    11   ar
    20     9    14   ar
    21    11    12   ar
    22    14    13   ar
    23    12    13   ar
    24     2    23    1
    25     3    24    1
    26     5    25    1
    27     6    26    1
    28     7    27    1
    29     7    28    1
    30     7    29    1
    31    10    30    1
    32    11    31    1
    33    12    32    1
    34    13    33    1
    35    14    34    1
    36    15    35    1
    37    17    36    1
    38    20    37    1
    39    20    38    1
    40    21    39    1
    41    21    40    1
    42    22    41    1
    43    22    42    1
    44    22    43    1
