@<TRIPOS>MOLECULE
17509418
 58 60 0 0 0
SMALL
GASTEIGER

@<TRIPOS>ATOM
      1  C         73.6410   25.4630   15.0500 C.3     1  UNL1        0.1570
      2  C         74.1910   24.4270   14.0100 C.3     1  UNL1       -0.0289
      3  C         74.4360   25.1740   16.3710 C.ar    1  UNL1        0.0739
      4  N         73.7910   24.4570   17.3360 N.ar    1  UNL1       -0.2572
      5  C         74.5110   24.0430   18.4060 C.ar    1  UNL1        0.0280
      6  C         75.8700   24.2560   18.5570 C.ar    1  UNL1       -0.0436
      7  C         76.5230   24.9830   17.5790 C.ar    1  UNL1       -0.0586
      8  C         75.7990   25.4780   16.4970 C.ar    1  UNL1       -0.0378
      9  C         72.1090   25.0780   15.2310 C.2     1  UNL1        0.2470
     10  N         71.5660   24.0600   14.4400 N.am    1  UNL1       -0.2829
     11  O         71.3760   25.8150   15.9070 O.2     1  UNL1       -0.2727
     12  C         70.1500   23.8050   14.4190 C.ar    1  UNL1        0.0393
     13  C         69.6020   22.7280   15.1640 C.ar    1  UNL1       -0.0290
     14  C         70.4500   21.6960   15.8610 C.3     1  UNL1       -0.0379
     15  C         68.2050   22.5210   15.1820 C.ar    1  UNL1       -0.0571
     16  C         67.3450   23.3450   14.4710 C.ar    1  UNL1       -0.0611
     17  C         67.8780   24.3720   13.7020 C.ar    1  UNL1       -0.0571
     18  C         69.2730   24.5960   13.6370 C.ar    1  UNL1       -0.0290
     19  C         69.6930   25.7620   12.7830 C.3     1  UNL1       -0.0379
     20  N         73.9420   26.8900   14.6030 N.am    1  UNL1       -0.2504
     21  C         73.7650   27.9310   15.5190 C.2     1  UNL1        0.2356
     22  O         72.9670   27.8020   16.4560 O.2     1  UNL1       -0.2739
     23  C         75.8160   27.6690   10.8730 C.ar    1  UNL1        0.1202
     24  C         76.5470   27.1840   11.9590 C.ar    1  UNL1       -0.0182
     25  C         75.9080   26.9030   13.1750 C.ar    1  UNL1       -0.0368
     26  C         74.5320   27.1050   13.3210 C.ar    1  UNL1        0.0380
     27  C         73.7900   27.5350   12.2130 C.ar    1  UNL1       -0.0368
     28  C         74.4270   27.8050   10.9910 C.ar    1  UNL1       -0.0182
     29  C         75.4780   28.6930    8.7780 C.3     1  UNL1        0.0788
     30  O         76.3590   27.9910    9.6590 O.3     1  UNL1       -0.4951
     31  C         74.6340   29.1800   15.3570 C.3     1  UNL1        0.0994
     32 CL         76.2420   28.9440   16.0830 Cl      1  UNL1       -0.1156
     33 H          73.6918   24.5626   13.0733 H       1  UNL1        0.0259
     34 H          74.0143   23.4342   14.3679 H       1  UNL1        0.0259
     35 H          75.2423   24.5770   13.8789 H       1  UNL1        0.0259
     36 H          74.0148   23.5368   19.1560 H       1  UNL1        0.0829
     37 H          76.3798   23.8840   19.3736 H       1  UNL1        0.0633
     38 H          77.5377   25.1573   17.6500 H       1  UNL1        0.0619
     39 H          76.2648   26.0674   15.7894 H       1  UNL1        0.0636
     40 H          72.1643   23.5073   13.8870 H       1  UNL1        0.1549
     41 H          71.4819   21.9659   15.7761 H       1  UNL1        0.0278
     42 H          70.2930   20.7398   15.4072 H       1  UNL1        0.0278
     43 H          70.1774   21.6494   16.8946 H       1  UNL1        0.0278
     44 H          67.8163   21.7412   15.7351 H       1  UNL1        0.0621
     45 H          66.3245   23.1974   14.5126 H       1  UNL1        0.0618
     46 H          67.2426   24.9844   13.1669 H       1  UNL1        0.0621
     47 H          68.8335   26.1792   12.3013 H       1  UNL1        0.0278
     48 H          70.3902   25.4291   12.0428 H       1  UNL1        0.0278
     49 H          70.1539   26.5067   13.3978 H       1  UNL1        0.0278
     50 H          77.5634   27.0314   11.8663 H       1  UNL1        0.0655
     51 H          76.4587   26.5435   13.9703 H       1  UNL1        0.0637
     52 H          72.7682   27.6541   12.2955 H       1  UNL1        0.0637
     53 H          73.8692   28.1050   10.1762 H       1  UNL1        0.0655
     54 H          75.9845   28.9017    7.8589 H       1  UNL1        0.0660
     55 H          75.1745   29.6118    9.2347 H       1  UNL1        0.0660
     56 H          74.6158   28.0907    8.5813 H       1  UNL1        0.0660
     57 H          74.1518   30.0054   15.8377 H       1  UNL1        0.0525
     58 H          74.7590   29.3725   14.3119 H       1  UNL1        0.0525
@<TRIPOS>BOND
     1    29    30    1
     2    30    23    1
     3    23    28   ar
     4    23    24   ar
     5    28    27   ar
     6    24    25   ar
     7    27    26   ar
     8    19    18    1
     9    25    26   ar
    10    26    20    1
    11    18    17   ar
    12    18    12   ar
    13    17    16   ar
    14     2     1    1
    15    12    10    1
    16    12    13   ar
    17    10     9   am
    18    16    15   ar
    19    20     1    1
    20    20    21   am
    21     1     9    1
    22     1     3    1
    23    13    15   ar
    24    13    14    1
    25     9    11    2
    26    31    21    1
    27    31    32    1
    28    21    22    2
    29     3     8   ar
    30     3     4   ar
    31     8     7   ar
    32     4     5   ar
    33     7     6   ar
    34     5     6   ar
    35     2    33    1
    36     2    34    1
    37     2    35    1
    38     5    36    1
    39     6    37    1
    40     7    38    1
    41     8    39    1
    42    10    40    1
    43    14    41    1
    44    14    42    1
    45    14    43    1
    46    15    44    1
    47    16    45    1
    48    17    46    1
    49    19    47    1
    50    19    48    1
    51    19    49    1
    52    24    50    1
    53    25    51    1
    54    27    52    1
    55    28    53    1
    56    29    54    1
    57    29    55    1
    58    29    56    1
    59    31    57    1
    60    31    58    1
