@<TRIPOS>MOLECULE
51089748
 76 78 0 0 0
SMALL
GASTEIGER

@<TRIPOS>ATOM
      1  C         66.3250   15.4420   14.7040 C.ar    1  UNL1       -0.0243
      2  C         66.7160   14.2240   15.3200 C.ar    1  UNL1       -0.0513
      3  C         67.5550   14.1640   16.4650 C.ar    1  UNL1       -0.0243
      4  C         68.0830   15.3810   16.9240 C.ar    1  UNL1       -0.0565
      5  C         67.7530   16.5900   16.3130 C.ar    1  UNL1       -0.0611
      6  C         66.8850   16.6200   15.2220 C.ar    1  UNL1       -0.0565
      7  C         64.1190   14.5400   13.7420 C.3     1  UNL1       -0.0397
      8  C         65.3330   15.4790   13.5030 C.3     1  UNL1        0.0555
      9  C         66.0220   14.9820   12.2080 C.3     1  UNL1       -0.0397
     10  N         64.8670   16.8720   13.3420 N.am    1  UNL1       -0.2904
     11  C         64.6200   17.4650   12.1320 C.2     1  UNL1        0.3008
     12  N         64.1260   18.7330   12.2510 N.am    1  UNL1       -0.2904
     13  O         64.8470   16.9590   11.0430 O.2     1  UNL1       -0.2528
     14  CA        63.8360   19.5800   11.0840 C.3     1  UNL1        0.0728
     15  C         62.4520   19.2500   10.5390 C.ar    1  UNL1       -0.0250
     16  C         62.0440   19.7200    9.2820 C.ar    1  UNL1       -0.0567
     17  C         60.7680   19.4150    8.7840 C.ar    1  UNL1       -0.0614
     18  C         59.9020   18.6350    9.5370 C.ar    1  UNL1       -0.0617
     19  C         60.2950   18.1570   10.7800 C.ar    1  UNL1       -0.0614
     20  C         61.5620   18.4600   11.2820 C.ar    1  UNL1       -0.0567
     21  C         63.9400   21.0940   11.4150 C.3     1  UNL1        0.0667
     22  O         64.3380   21.9070   10.3130 O.3     1  UNL1       -0.3928
     23  C         67.8800   12.8200   17.1880 C.3     1  UNL1        0.0555
     24  C         68.2060   11.7180   16.1500 C.3     1  UNL1       -0.0397
     25  C         66.6630   12.3090   18.0020 C.3     1  UNL1       -0.0397
     26  N         69.0220   13.0570   18.0990 N.am    1  UNL1       -0.2904
     27  C         69.2580   12.3380   19.2510 C.2     1  UNL1        0.3008
     28  N         70.3470   12.8280   19.9290 N.am    1  UNL1       -0.2904
     29  O         68.5900   11.3940   19.6420 O.2     1  UNL1       -0.2528
     30  CA        70.9110   12.1410   21.1060 C.3     1  UNL1        0.0728
     31  C         72.3360   11.6870   20.8000 C.ar    1  UNL1       -0.0250
     32  C         72.5860   10.4070   20.2710 C.ar    1  UNL1       -0.0567
     33  C         73.8870    9.9840   20.0010 C.ar    1  UNL1       -0.0614
     34  C         74.9610   10.8340   20.2480 C.ar    1  UNL1       -0.0617
     35  C         74.7310   12.1130   20.7520 C.ar    1  UNL1       -0.0614
     36  C         73.4270   12.5400   21.0260 C.ar    1  UNL1       -0.0567
     37  C         70.9160   13.0480   22.3630 C.3     1  UNL1        0.0667
     38  O         71.0050   12.3180   23.5820 O.3     1  UNL1       -0.3928
     39 H          66.3737   13.3382   14.9159 H       1  UNL1        0.0624
     40 H          68.7281   15.3808   17.7295 H       1  UNL1        0.0621
     41 H          68.1547   17.4705   16.6713 H       1  UNL1        0.0618
     42 H          66.6499   17.5259   14.7871 H       1  UNL1        0.0621
     43 H          63.4593   14.5889   12.9010 H       1  UNL1        0.0253
     44 H          63.5970   14.8493   14.6233 H       1  UNL1        0.0253
     45 H          64.4645   13.5350   13.8663 H       1  UNL1        0.0253
     46 H          65.3244   15.0155   11.3974 H       1  UNL1        0.0253
     47 H          66.3593   13.9761   12.3469 H       1  UNL1        0.0253
     48 H          66.8584   15.6110   11.9850 H       1  UNL1        0.0253
     49 H          64.7251   17.4078   14.1557 H       1  UNL1        0.1511
     50 H          63.9578   19.0934   13.1516 H       1  UNL1        0.1509
     51 H          64.5754   19.3708   10.3394 H       1  UNL1        0.0571
     52 H          62.6885   20.2957    8.7179 H       1  UNL1        0.0621
     53 H          60.4745   19.7698    7.8604 H       1  UNL1        0.0618
     54 H          58.9633   18.4095    9.1722 H       1  UNL1        0.0618
     55 H          59.6479   17.5754   11.3350 H       1  UNL1        0.0618
     56 H          61.8460   18.1001   12.2066 H       1  UNL1        0.0621
     57 H          62.9817   21.4306   11.7515 H       1  UNL1        0.0579
     58 H          64.7000   21.1942   12.1615 H       1  UNL1        0.0579
     59 H          63.6734   21.8454    9.6091 H       1  UNL1        0.2095
     60 H          67.3622   11.5714   15.5085 H       1  UNL1        0.0253
     61 H          68.4303   10.8039   16.6588 H       1  UNL1        0.0253
     62 H          69.0507   12.0173   15.5654 H       1  UNL1        0.0253
     63 H          65.8385   12.1383   17.3417 H       1  UNL1        0.0253
     64 H          66.3893   13.0416   18.7322 H       1  UNL1        0.0253
     65 H          66.9214   11.3945   18.4937 H       1  UNL1        0.0253
     66 H          69.6543   13.7750   17.8671 H       1  UNL1        0.1511
     67 H          70.7644   13.6642   19.6197 H       1  UNL1        0.1509
     68 H          70.2893   11.2959   21.3163 H       1  UNL1        0.0571
     69 H          71.7950    9.7723   20.0802 H       1  UNL1        0.0621
     70 H          74.0535    9.0403   19.6179 H       1  UNL1        0.0618
     71 H          75.9250   10.5182   20.0585 H       1  UNL1        0.0618
     72 H          75.5262   12.7480   20.9239 H       1  UNL1        0.0618
     73 H          73.2664   13.4895   21.3971 H       1  UNL1        0.0621
     74 H          70.0110   13.6188   22.3739 H       1  UNL1        0.0579
     75 H          71.7839   13.6709   22.3017 H       1  UNL1        0.0579
     76 H          70.2307   11.7405   23.6703 H       1  UNL1        0.2095
@<TRIPOS>BOND
     1    17    16   ar
     2    17    18   ar
     3    16    15   ar
     4    18    19   ar
     5    22    21    1
     6    15    14    1
     7    15    20   ar
     8    19    20   ar
     9    13    11    2
    10    14    21    1
    11    14    12    1
    12    11    12   am
    13    11    10   am
    14     9     8    1
    15    10     8    1
    16     8     7    1
    17     8     1    1
    18     1     6   ar
    19     1     2   ar
    20     6     5   ar
    21     2     3   ar
    22    24    23    1
    23     5     4   ar
    24     3     4   ar
    25     3    23    1
    26    23    25    1
    27    23    26    1
    28    26    27   am
    29    27    29    2
    30    27    28   am
    31    28    30    1
    32    33    34   ar
    33    33    32   ar
    34    34    35   ar
    35    32    31   ar
    36    35    36   ar
    37    31    36   ar
    38    31    30    1
    39    30    37    1
    40    37    38    1
    41     2    39    1
    42     4    40    1
    43     5    41    1
    44     6    42    1
    45     7    43    1
    46     7    44    1
    47     7    45    1
    48     9    46    1
    49     9    47    1
    50     9    48    1
    51    10    49    1
    52    12    50    1
    53    14    51    1
    54    16    52    1
    55    17    53    1
    56    18    54    1
    57    19    55    1
    58    20    56    1
    59    21    57    1
    60    21    58    1
    61    22    59    1
    62    24    60    1
    63    24    61    1
    64    24    62    1
    65    25    63    1
    66    25    64    1
    67    25    65    1
    68    26    66    1
    69    28    67    1
    70    30    68    1
    71    32    69    1
    72    33    70    1
    73    34    71    1
    74    35    72    1
    75    36    73    1
    76    37    74    1
    77    37    75    1
    78    38    76    1
