@<TRIPOS>MOLECULE
11532855
 37 37 0 0 0
SMALL
GASTEIGER

@<TRIPOS>ATOM
      1  C         64.5640   16.3530   12.1750 C.2     1  UNL1        0.2651
      2  N         63.3900   17.0120   12.4810 N.am    1  UNL1       -0.2807
      3  O         65.1000   16.3700   11.0640 O.2     1  UNL1       -0.2693
      4  C         62.5270   17.6170   11.5220 C.ar    1  UNL1        0.0365
      5  C         62.6280   19.0010   11.2600 C.ar    1  UNL1       -0.0292
      6  C         63.6680   19.8810   11.8980 C.3     1  UNL1       -0.0380
      7  C         61.7550   19.5870   10.3250 C.ar    1  UNL1       -0.0571
      8  C         60.7970   18.8260    9.6580 C.ar    1  UNL1       -0.0614
      9  C         60.6890   17.4690    9.9260 C.ar    1  UNL1       -0.0600
     10  C         61.5450   16.8720   10.8550 C.ar    1  UNL1       -0.0402
     11  C         65.2290   15.4860   13.2780 C.3     1  UNL1        0.0524
     12  C         65.9140   16.2460   14.4050 C.3     1  UNL1       -0.0130
     13  N         64.2380   14.4990   13.9300 N.4     1  UNL1        0.2355
     14  C         64.8630   13.5080   14.8740 C.3     1  UNL1       -0.0332
     15  C         64.6790   14.3300   17.2200 C.3     1  UNL1       -0.0605
     16  C         64.0560   13.4280   16.1630 C.3     1  UNL1       -0.0154
     17 H          63.1307   17.0679   13.4291 H       1  UNL1        0.1550
     18 H          63.5483   20.8853   11.5488 H       1  UNL1        0.0278
     19 H          64.6435   19.5267   11.6376 H       1  UNL1        0.0278
     20 H          63.5519   19.8569   12.9614 H       1  UNL1        0.0278
     21 H          61.8254   20.5979   10.1298 H       1  UNL1        0.0621
     22 H          60.1708   19.2697    8.9680 H       1  UNL1        0.0618
     23 H          59.9774   16.9013    9.4398 H       1  UNL1        0.0618
     24 H          61.4524   15.8636   11.0538 H       1  UNL1        0.0636
     25 H          65.9883   14.9743   12.7243 H       1  UNL1        0.0946
     26 H          65.1793   16.7703   14.9797 H       1  UNL1        0.0289
     27 H          66.6098   16.9460   13.9918 H       1  UNL1        0.0289
     28 H          66.4344   15.5559   15.0358 H       1  UNL1        0.0289
     29 H          63.7728   13.9787   13.1862 H       1  UNL1        0.2021
     30 H          63.5972   15.0627   14.4886 H       1  UNL1        0.2021
     31 H          65.8618   13.8176   15.1010 H       1  UNL1        0.0814
     32 H          64.8758   12.5440   14.4098 H       1  UNL1        0.0814
     33 H          64.1075   14.2692   18.1226 H       1  UNL1        0.0232
     34 H          64.6840   15.3406   16.8685 H       1  UNL1        0.0232
     35 H          65.6832   14.0140   17.4116 H       1  UNL1        0.0232
     36 H          64.0508   12.4181   16.5165 H       1  UNL1        0.0314
     37 H          63.0533   13.7489   15.9719 H       1  UNL1        0.0314
@<TRIPOS>BOND
     1     8     9   ar
     2     8     7   ar
     3     9    10   ar
     4     7     5   ar
     5    10     4   ar
     6     3     1    2
     7     5     4   ar
     8     5     6    1
     9     4     2    1
    10     1     2   am
    11     1    11    1
    12    11    13    1
    13    11    12    1
    14    13    14    1
    15    14    16    1
    16    16    15    1
    17     2    17    1
    18     6    18    1
    19     6    19    1
    20     6    20    1
    21     7    21    1
    22     8    22    1
    23     9    23    1
    24    10    24    1
    25    11    25    1
    26    12    26    1
    27    12    27    1
    28    12    28    1
    29    13    29    1
    30    13    30    1
    31    14    31    1
    32    14    32    1
    33    15    33    1
    34    15    34    1
    35    15    35    1
    36    16    36    1
    37    16    37    1
