@<TRIPOS>MOLECULE
24822802
 40 42 0 0 0
SMALL
GASTEIGER

@<TRIPOS>ATOM
      1  O         68.1260   16.5230   17.1140 O.2     1  UNL1       -0.2926
      2  C         67.5790   15.7410   16.3400 C.2     1  UNL1        0.1581
      3  C         66.4020   16.2380   15.5980 C.2     1  UNL1       -0.0025
      4  C         65.9020   15.5720   14.5540 C.2     1  UNL1        0.0080
      5  C         66.4460   14.2250   14.1260 C.3     1  UNL1       -0.0075
      6  C         67.2830   13.4630   15.1720 C.3     1  UNL1       -0.0038
      7  C         68.0960   14.3430   16.1280 C.3     1  UNL1        0.0171
      8  C         66.4760   12.4090   15.9220 C.ar    1  UNL1       -0.0435
      9  C         65.0700   12.4340   15.8290 C.ar    1  UNL1       -0.0583
     10  C         64.2920   11.4510   16.4410 C.ar    1  UNL1       -0.0615
     11  C         64.9030   10.4310   17.1620 C.ar    1  UNL1       -0.0617
     12  C         66.2920   10.3970   17.2720 C.ar    1  UNL1       -0.0615
     13  C         67.0750   11.3780   16.6570 C.ar    1  UNL1       -0.0583
     14  N         64.7630   16.1070   13.8370 N.pl3   1  UNL1       -0.3441
     15  C         65.0260   16.9620   12.6250 C.3     1  UNL1        0.0204
     16  C         63.9680   18.0720   12.5360 C.3     1  UNL1       -0.0346
     17  C         63.5780   18.1760   11.0620 C.3     1  UNL1       -0.0513
     18  C         64.5580   17.2880   10.3080 C.3     1  UNL1       -0.0513
     19  C         64.9110   16.1980   11.3110 C.3     1  UNL1       -0.0346
     20 H          65.9558   17.1204   15.8934 H       1  UNL1        0.0667
     21 H          67.0628   14.3809   13.2657 H       1  UNL1        0.0331
     22 H          65.5862   13.6135   13.9481 H       1  UNL1        0.0331
     23 H          68.0154   12.9532   14.5815 H       1  UNL1        0.0356
     24 H          69.0900   14.4172   15.7390 H       1  UNL1        0.0351
     25 H          68.0337   13.8648   17.0832 H       1  UNL1        0.0351
     26 H          64.6090   13.1909   15.3002 H       1  UNL1        0.0620
     27 H          63.2637   11.4808   16.3587 H       1  UNL1        0.0618
     28 H          64.3299    9.7016   17.6142 H       1  UNL1        0.0618
     29 H          66.7453    9.6427   17.8110 H       1  UNL1        0.0618
     30 H          68.1026   11.3424   16.7452 H       1  UNL1        0.0620
     31 H          63.8435   15.9174   14.1332 H       1  UNL1        0.1461
     32 H          66.0233   17.3297   12.7476 H       1  UNL1        0.0497
     33 H          63.1138   17.8179   13.1282 H       1  UNL1        0.0283
     34 H          64.3482   19.0020   12.9041 H       1  UNL1        0.0283
     35 H          62.5756   17.8311   10.9169 H       1  UNL1        0.0266
     36 H          63.6174   19.1876   10.7154 H       1  UNL1        0.0266
     37 H          65.4294   17.8394   10.0226 H       1  UNL1        0.0266
     38 H          64.1466   16.8967    9.4011 H       1  UNL1        0.0266
     39 H          65.8383   15.7282   11.0573 H       1  UNL1        0.0283
     40 H          64.1899   15.4082   11.3452 H       1  UNL1        0.0283
@<TRIPOS>BOND
     1    18    17    1
     2    18    19    1
     3    17    16    1
     4    19    15    1
     5    16    15    1
     6    15    14    1
     7    14     4    1
     8     5     4    1
     9     5     6    1
    10     4     3    2
    11     6     8    1
    12     6     7    1
    13     3     2    1
    14     9     8   ar
    15     9    10   ar
    16     8    13   ar
    17     7     2    1
    18     2     1    2
    19    10    11   ar
    20    13    12   ar
    21    11    12   ar
    22     3    20    1
    23     5    21    1
    24     5    22    1
    25     6    23    1
    26     7    24    1
    27     7    25    1
    28     9    26    1
    29    10    27    1
    30    11    28    1
    31    12    29    1
    32    13    30    1
    33    14    31    1
    34    15    32    1
    35    16    33    1
    36    16    34    1
    37    17    35    1
    38    17    36    1
    39    18    37    1
    40    18    38    1
    41    19    39    1
    42    19    40    1
