@<TRIPOS>MOLECULE
24827328
 37 38 0 0 0
SMALL
GASTEIGER

@<TRIPOS>ATOM
      1  C         64.2900   16.0360   12.4060 C.2     1  UNL1        0.1502
      2  S         65.1340   16.0740   10.9630 S.2     1  UNL1       -0.0172
      3  N         64.4800   15.1460   13.4330 N.am    1  UNL1       -0.2185
      4  C         65.1720   11.2080   17.0320 C.3     1  UNL1       -0.0621
      5  C         65.5320   12.5320   16.4540 C.3     1  UNL1       -0.0384
      6  C         66.7160   13.2810   16.9880 C.3     1  UNL1       -0.0450
      7  C         66.5780   14.6750   16.3950 C.3     1  UNL1       -0.0126
      8  C         65.5420   14.4750   15.3250 C.2     1  UNL1        0.0371
      9  N         65.3110   15.4200   14.4770 N.2     1  UNL1       -0.1900
     10  C         64.8770   13.1640   15.4720 C.3     1  UNL1       -0.0102
     11  N         63.3200   16.9830   12.6050 N.am    1  UNL1       -0.3212
     12  C         61.9740   16.9020   12.0610 C.3     1  UNL1        0.0360
     13  C         61.6500   17.9870   11.0690 C.ar    1  UNL1       -0.0304
     14  C         60.7210   17.7380   10.0460 C.ar    1  UNL1       -0.0571
     15  C         60.4260   18.7180    9.0980 C.ar    1  UNL1       -0.0615
     16  C         61.0670   19.9560    9.1510 C.ar    1  UNL1       -0.0617
     17  C         62.0070   20.2070   10.1470 C.ar    1  UNL1       -0.0615
     18  C         62.3040   19.2260   11.0940 C.ar    1  UNL1       -0.0571
     19 H          64.0024   14.2853   13.4148 H       1  UNL1        0.1762
     20 H          64.3074   10.8238   16.5322 H       1  UNL1        0.0233
     21 H          64.9608   11.3197   18.0750 H       1  UNL1        0.0233
     22 H          65.9890   10.5290   16.9042 H       1  UNL1        0.0233
     23 H          64.9143   11.6660   16.3386 H       1  UNL1        0.0302
     24 H          66.6894   13.3196   18.0570 H       1  UNL1        0.0271
     25 H          67.6444   12.8166   16.7285 H       1  UNL1        0.0271
     26 H          66.2432   15.3762   17.1306 H       1  UNL1        0.0326
     27 H          67.4998   15.0735   16.0257 H       1  UNL1        0.0326
     28 H          64.9444   12.6075   14.5606 H       1  UNL1        0.0328
     29 H          63.8368   13.2727   15.6981 H       1  UNL1        0.0328
     30 H          63.5492   17.7691   13.1516 H       1  UNL1        0.1481
     31 H          61.8643   15.9560   11.5732 H       1  UNL1        0.0511
     32 H          61.2994   17.0215   12.8829 H       1  UNL1        0.0511
     33 H          60.2515   16.8204    9.9949 H       1  UNL1        0.0621
     34 H          59.7333   18.5271    8.3572 H       1  UNL1        0.0618
     35 H          60.8450   20.6838    8.4538 H       1  UNL1        0.0618
     36 H          62.4852   21.1207   10.1850 H       1  UNL1        0.0618
     37 H          63.0125   19.4150   11.8202 H       1  UNL1        0.0621
@<TRIPOS>BOND
     1    15    16   ar
     2    15    14   ar
     3    16    17   ar
     4    14    13   ar
     5    17    18   ar
     6     2     1    2
     7    13    18   ar
     8    13    12    1
     9    12    11    1
    10     1    11    1
    11     1     3    1
    12     3     9    1
    13     9     8    2
    14     8    10    1
    15     8     7    1
    16    10     5    1
    17     7     6    1
    18     5     6    1
    19     5     4    1
    20     3    19    1
    21     4    20    1
    22     4    21    1
    23     4    22    1
    24     5    23    1
    25     6    24    1
    26     6    25    1
    27     7    26    1
    28     7    27    1
    29    10    28    1
    30    10    29    1
    31    11    30    1
    32    12    31    1
    33    12    32    1
    34    14    33    1
    35    15    34    1
    36    16    35    1
    37    17    36    1
    38    18    37    1
