@<TRIPOS>MOLECULE
24827328
 37 38 0 0 0
SMALL
GASTEIGER

@<TRIPOS>ATOM
      1  C         64.2770   16.0510   12.3970 C.2     1  UNL1        0.1502
      2  S         65.1230   16.0890   10.9550 S.2     1  UNL1       -0.0172
      3  N         64.4610   15.1550   13.4200 N.am    1  UNL1       -0.2185
      4  C         65.1520   11.1810   16.9820 C.3     1  UNL1       -0.0621
      5  C         65.5120   12.5110   16.4150 C.3     1  UNL1       -0.0384
      6  C         66.7040   13.2500   16.9490 C.3     1  UNL1       -0.0450
      7  C         66.5690   14.6480   16.3680 C.3     1  UNL1       -0.0126
      8  C         65.5290   14.4620   15.3000 C.2     1  UNL1        0.0371
      9  N         65.2980   15.4150   14.4610 N.2     1  UNL1       -0.1900
     10  C         64.8560   13.1540   15.4430 C.3     1  UNL1       -0.0102
     11  N         63.3130   17.0040   12.5990 N.am    1  UNL1       -0.3212
     12  C         61.9640   16.9280   12.0630 C.3     1  UNL1        0.0360
     13  C         61.6370   18.0100   11.0680 C.ar    1  UNL1       -0.0304
     14  C         60.7130   17.7510   10.0430 C.ar    1  UNL1       -0.0571
     15  C         60.4200   18.7260    9.0880 C.ar    1  UNL1       -0.0615
     16  C         61.0530   19.9650    9.1390 C.ar    1  UNL1       -0.0617
     17  C         61.9890   20.2270   10.1370 C.ar    1  UNL1       -0.0615
     18  C         62.2850   19.2530   11.0920 C.ar    1  UNL1       -0.0571
     19 H          63.9736   14.2998   13.4002 H       1  UNL1        0.1762
     20 H          64.2822   10.8050   16.4850 H       1  UNL1        0.0233
     21 H          64.9495   11.2821   18.0278 H       1  UNL1        0.0233
     22 H          65.9658   10.5008   16.8404 H       1  UNL1        0.0233
     23 H          64.8614   11.6675   16.3147 H       1  UNL1        0.0302
     24 H          66.6837   13.2802   18.0184 H       1  UNL1        0.0271
     25 H          67.6287   12.7830   16.6811 H       1  UNL1        0.0271
     26 H          66.2394   15.3444   17.1105 H       1  UNL1        0.0326
     27 H          67.4912   15.0454   15.9984 H       1  UNL1        0.0326
     28 H          64.9134   12.6034   14.5274 H       1  UNL1        0.0328
     29 H          63.8183   13.2686   15.6773 H       1  UNL1        0.0328
     30 H          63.5493   17.7905   13.1420 H       1  UNL1        0.1481
     31 H          61.8471   15.9805   11.5799 H       1  UNL1        0.0511
     32 H          61.2957   17.0555   12.8889 H       1  UNL1        0.0511
     33 H          60.2464   16.8317    9.9953 H       1  UNL1        0.0621
     34 H          59.7334   18.5282    8.3433 H       1  UNL1        0.0618
     35 H          60.8290   20.6886    8.4381 H       1  UNL1        0.0618
     36 H          62.4642   21.1425   10.1703 H       1  UNL1        0.0618
     37 H          62.9872   19.4496   11.8223 H       1  UNL1        0.0621
@<TRIPOS>BOND
     1    15    16   ar
     2    15    14   ar
     3    16    17   ar
     4    14    13   ar
     5    17    18   ar
     6     2     1    2
     7    13    18   ar
     8    13    12    1
     9    12    11    1
    10     1    11    1
    11     1     3    1
    12     3     9    1
    13     9     8    2
    14     8    10    1
    15     8     7    1
    16    10     5    1
    17     7     6    1
    18     5     6    1
    19     5     4    1
    20     3    19    1
    21     4    20    1
    22     4    21    1
    23     4    22    1
    24     5    23    1
    25     6    24    1
    26     6    25    1
    27     7    26    1
    28     7    27    1
    29    10    28    1
    30    10    29    1
    31    11    30    1
    32    12    31    1
    33    12    32    1
    34    14    33    1
    35    15    34    1
    36    16    35    1
    37    17    36    1
    38    18    37    1
