@<TRIPOS>MOLECULE
11532855
 37 37 0 0 0
SMALL
GASTEIGER

@<TRIPOS>ATOM
      1  C         64.5140   16.2810   12.1350 C.2     1  UNL1        0.2651
      2  N         63.4150   17.0520   12.4630 N.am    1  UNL1       -0.2807
      3  O         64.9540   16.1350   10.9930 O.2     1  UNL1       -0.2693
      4  C         62.5330   17.6480   11.5230 C.ar    1  UNL1        0.0365
      5  C         62.6450   19.0260   11.2360 C.ar    1  UNL1       -0.0292
      6  C         63.6690   19.9160   11.8850 C.3     1  UNL1       -0.0380
      7  C         61.7820   19.5970   10.2830 C.ar    1  UNL1       -0.0571
      8  C         60.8120   18.8320    9.6390 C.ar    1  UNL1       -0.0614
      9  C         60.6760   17.4870    9.9540 C.ar    1  UNL1       -0.0600
     10  C         61.5250   16.9010   10.8940 C.ar    1  UNL1       -0.0402
     11  C         65.1920   15.4730   13.2710 C.3     1  UNL1        0.0524
     12  C         65.8330   16.2930   14.3830 C.3     1  UNL1       -0.0130
     13  N         64.2220   14.4840   13.9380 N.4     1  UNL1        0.2355
     14  C         64.8650   13.4960   14.8740 C.3     1  UNL1       -0.0332
     15  C         64.7100   14.3510   17.2180 C.3     1  UNL1       -0.0605
     16  C         64.0770   13.4400   16.1750 C.3     1  UNL1       -0.0154
     17 H          63.2299   17.1989   13.4187 H       1  UNL1        0.1550
     18 H          63.5621   20.9133   11.5125 H       1  UNL1        0.0278
     19 H          64.6504   19.5542   11.6593 H       1  UNL1        0.0278
     20 H          63.5231   19.9136   12.9450 H       1  UNL1        0.0278
     21 H          61.8690   20.6002   10.0570 H       1  UNL1        0.0621
     22 H          60.1974   19.2633    8.9310 H       1  UNL1        0.0618
     23 H          59.9470   16.9203    9.4931 H       1  UNL1        0.0618
     24 H          61.4098   15.9030   11.1302 H       1  UNL1        0.0636
     25 H          65.9772   14.9680   12.7482 H       1  UNL1        0.0946
     26 H          65.0721   16.8124   14.9272 H       1  UNL1        0.0289
     27 H          66.5133   17.0008   13.9574 H       1  UNL1        0.0289
     28 H          66.3640   15.6419   15.0456 H       1  UNL1        0.0289
     29 H          63.7481   13.9604   13.2020 H       1  UNL1        0.2021
     30 H          63.5888   15.0456   14.5073 H       1  UNL1        0.2021
     31 H          65.8699   13.8012   15.0789 H       1  UNL1        0.0814
     32 H          64.8712   12.5273   14.4196 H       1  UNL1        0.0814
     33 H          64.1453   14.3006   18.1255 H       1  UNL1        0.0232
     34 H          64.7146   15.3580   16.8563 H       1  UNL1        0.0232
     35 H          65.7149   14.0346   17.4052 H       1  UNL1        0.0232
     36 H          64.0720   12.4347   16.5413 H       1  UNL1        0.0314
     37 H          63.0757   13.7682   15.9890 H       1  UNL1        0.0314
@<TRIPOS>BOND
     1     8     9   ar
     2     8     7   ar
     3     9    10   ar
     4     7     5   ar
     5    10     4   ar
     6     3     1    2
     7     5     4   ar
     8     5     6    1
     9     4     2    1
    10     1     2   am
    11     1    11    1
    12    11    13    1
    13    11    12    1
    14    13    14    1
    15    14    16    1
    16    16    15    1
    17     2    17    1
    18     6    18    1
    19     6    19    1
    20     6    20    1
    21     7    21    1
    22     8    22    1
    23     9    23    1
    24    10    24    1
    25    11    25    1
    26    12    26    1
    27    12    27    1
    28    12    28    1
    29    13    29    1
    30    13    30    1
    31    14    31    1
    32    14    32    1
    33    15    33    1
    34    15    34    1
    35    15    35    1
    36    16    36    1
    37    16    37    1
