@<TRIPOS>MOLECULE
17504821
 54 56 0 0 0
SMALL
GASTEIGER

@<TRIPOS>ATOM
      1  C         73.3930   22.8630   17.2480 C.ar    1  UNL1        0.1654
      2  C         72.2850   22.0870   16.9000 C.ar    1  UNL1        0.1962
      3  C         71.6250   21.3860   17.9250 C.ar    1  UNL1       -0.0128
      4  C         72.1480   21.3230   19.2230 C.ar    1  UNL1       -0.0485
      5  C         73.3030   22.0270   19.5530 C.ar    1  UNL1        0.0070
      6  C         73.8540   22.8580   18.5740 C.ar    1  UNL1       -0.0067
      7  C         73.9330   21.9490   20.9230 C.2     1  UNL1        0.0822
      8  S         75.5410   21.4400   21.0940 S.2     1  UNL1       -0.0348
      9  N         73.1270   22.2680   22.0330 N.am    1  UNL1       -0.3194
     10  C         72.7610   23.6520   22.3910 C.3     1  UNL1        0.0362
     11  C         72.9110   23.8540   23.9040 C.3     1  UNL1        0.0634
     12  O         72.1270   22.9040   24.6440 O.3     1  UNL1       -0.3767
     13  C         72.5170   21.5580   24.3220 C.3     1  UNL1        0.0634
     14  C         72.3540   21.2840   22.8200 C.3     1  UNL1        0.0362
     15  O         74.2180   23.5950   16.4480 O.3     1  UNL1       -0.4885
     16  C         75.0300   25.7580   16.0030 C.3     1  UNL1       -0.0307
     17  C         75.0220   24.6190   17.0130 C.3     1  UNL1        0.0870
     18  O         71.8930   21.9850   15.5790 O.3     1  UNL1       -0.3588
     19  S         70.3690   22.4140   15.1500 S.3     1  UNL1       -0.0127
     20  O         69.5300   22.2920   16.3230 O.3     1  UNL1       -0.2634
     21  O         70.0610   21.7550   13.8950 O.3     1  UNL1       -0.2634
     22  C         70.3930   24.1400   14.7710 C.ar    1  UNL1        0.1258
     23  C         69.1900   24.8110   14.5130 C.ar    1  UNL1        0.1207
     24  C         69.1820   26.1710   14.1830 C.ar    1  UNL1       -0.0318
     25  C         70.3910   26.8580   14.1020 C.ar    1  UNL1       -0.0596
     26  C         71.5940   26.1940   14.3510 C.ar    1  UNL1       -0.0598
     27  C         71.6020   24.8350   14.6900 C.ar    1  UNL1       -0.0335
     28  N         67.9010   24.1410   14.5820 N.4     1  UNL1       -0.1268
     29  O         67.2340   24.3010   15.6070 O.3     1  UNL1       -0.2624
     30  O         67.5450   23.5200   13.5720 O.3     1  UNL1       -0.2624
     31 H          70.7350   20.9070   17.7162 H       1  UNL1        0.0656
     32 H          71.6741   20.7510   19.9394 H       1  UNL1        0.0625
     33 H          74.6269   23.4902   18.8349 H       1  UNL1        0.0662
     34 H          71.7459   23.8358   22.1070 H       1  UNL1        0.0486
     35 H          73.4078   24.3326   21.8778 H       1  UNL1        0.0486
     36 H          72.5880   24.8424   24.1562 H       1  UNL1        0.0575
     37 H          73.9399   23.7115   24.1606 H       1  UNL1        0.0575
     38 H          73.5418   21.4156   24.5948 H       1  UNL1        0.0575
     39 H          71.8885   20.8816   24.8628 H       1  UNL1        0.0575
     40 H          72.7090   20.2988   22.6002 H       1  UNL1        0.0486
     41 H          71.3191   21.3665   22.5611 H       1  UNL1        0.0486
     42 H          75.6254   26.5637   16.3788 H       1  UNL1        0.0262
     43 H          74.0287   26.0992   15.8423 H       1  UNL1        0.0262
     44 H          75.4415   25.4116   15.0780 H       1  UNL1        0.0262
     45 H          74.6042   24.9491   17.9411 H       1  UNL1        0.0694
     46 H          76.0131   24.2700   17.2152 H       1  UNL1        0.0694
     47 H          68.6200   22.5405   16.0969 H       1  UNL1        0.2437
     48 H          70.7467   21.9661   13.2422 H       1  UNL1        0.2437
     49 H          68.2910   26.6591   14.0018 H       1  UNL1        0.0640
     50 H          70.3977   27.8605   13.8573 H       1  UNL1        0.0618
     51 H          72.4856   26.7095   14.2846 H       1  UNL1        0.0618
     52 H          72.4938   24.3511   14.8784 H       1  UNL1        0.0638
     53 H          66.4023   23.8074   15.5319 H       1  UNL1        0.2470
     54 H          68.2543   23.5443   12.9107 H       1  UNL1        0.2470
@<TRIPOS>BOND
     1    30    28    1
     2    21    19    1
     3    25    24   ar
     4    25    26   ar
     5    24    23   ar
     6    26    27   ar
     7    23    28    1
     8    23    22   ar
     9    28    29    1
    10    27    22   ar
    11    22    19    1
    12    19    18    1
    13    19    20    1
    14    18     2    1
    15    16    17    1
    16    15    17    1
    17    15     1    1
    18     2     1   ar
    19     2     3   ar
    20     1     6   ar
    21     3     4   ar
    22     6     5   ar
    23     4     5   ar
    24     5     7    1
    25     7     8    2
    26     7     9    1
    27     9    10    1
    28     9    14    1
    29    10    11    1
    30    14    13    1
    31    11    12    1
    32    13    12    1
    33     3    31    1
    34     4    32    1
    35     6    33    1
    36    10    34    1
    37    10    35    1
    38    11    36    1
    39    11    37    1
    40    13    38    1
    41    13    39    1
    42    14    40    1
    43    14    41    1
    44    16    42    1
    45    16    43    1
    46    16    44    1
    47    17    45    1
    48    17    46    1
    49    20    47    1
    50    21    48    1
    51    24    49    1
    52    25    50    1
    53    26    51    1
    54    27    52    1
    55    29    53    1
    56    30    54    1
