@<TRIPOS>MOLECULE
50085961
 33 33 0 0 0
SMALL
GASTEIGER

@<TRIPOS>ATOM
      1  C         62.6510   16.6780   11.4080 C.3     1  UNL1        0.1198
      2  C         62.6020   18.1430   11.0510 C.ar    1  UNL1       -0.0104
      3  C         63.5150   19.0140   11.6760 C.ar    1  UNL1       -0.0107
      4  C         63.4620   20.3760   11.4180 C.ar    1  UNL1        0.1586
      5  C         62.5240   20.9020   10.5430 C.ar    1  UNL1        0.1582
      6  C         61.6050   20.0640    9.9190 C.ar    1  UNL1       -0.0162
      7  C         61.6460   18.6830   10.1770 C.ar    1  UNL1       -0.0523
      8  O         64.3530   21.1940   12.0500 O.3     1  UNL1       -0.5033
      9  O         62.5400   22.2510   10.3360 O.3     1  UNL1       -0.5033
     10  O         61.7830   16.3210   12.4860 O.3     1  UNL1       -0.3819
     11  C         64.0820   16.2560   11.7950 C.3     1  UNL1       -0.0026
     12  N         64.0040   15.3400   12.9940 N.4     1  UNL1        0.2308
     13  C         66.2790   14.5570   12.5720 C.3     1  UNL1       -0.0219
     14  C         65.3000   14.9900   13.6580 C.3     1  UNL1       -0.0283
     15  C         65.8390   16.1930   14.4190 C.3     1  UNL1       -0.0219
     16 H          62.3207   16.1660   10.5285 H       1  UNL1        0.0698
     17 H          64.2235   18.6391   12.3260 H       1  UNL1        0.0659
     18 H          60.9002   20.4527    9.2731 H       1  UNL1        0.0655
     19 H          60.9647   18.0584    9.7180 H       1  UNL1        0.0622
     20 H          64.3357   22.1173   11.8910 H       1  UNL1        0.2923
     21 H          61.9212   22.6427    9.7515 H       1  UNL1        0.2923
     22 H          62.0669   16.7763   13.2941 H       1  UNL1        0.2105
     23 H          64.6601   17.1225   12.0398 H       1  UNL1        0.0843
     24 H          64.5488   15.7493   10.9763 H       1  UNL1        0.0843
     25 H          63.5673   14.4697   12.6902 H       1  UNL1        0.2017
     26 H          63.4754   15.8597   13.6946 H       1  UNL1        0.2017
     27 H          65.8817   13.7116   12.0501 H       1  UNL1        0.0284
     28 H          67.2142   14.2925   13.0197 H       1  UNL1        0.0284
     29 H          66.4281   15.3630   11.8842 H       1  UNL1        0.0284
     30 H          65.1597   14.1960   14.3614 H       1  UNL1        0.0845
     31 H          65.9901   17.0061   13.7401 H       1  UNL1        0.0284
     32 H          66.7697   15.9357   14.8800 H       1  UNL1        0.0284
     33 H          65.1362   16.4829   15.1719 H       1  UNL1        0.0284
@<TRIPOS>BOND
     1     6     7   ar
     2     6     5   ar
     3     7     2   ar
     4     9     5    1
     5     5     4   ar
     6     2     1    1
     7     2     3   ar
     8     1    11    1
     9     1    10    1
    10     4     3   ar
    11     4     8    1
    12    11    12    1
    13    13    14    1
    14    12    14    1
    15    14    15    1
    16     1    16    1
    17     3    17    1
    18     6    18    1
    19     7    19    1
    20     8    20    1
    21     9    21    1
    22    10    22    1
    23    11    23    1
    24    11    24    1
    25    12    25    1
    26    12    26    1
    27    13    27    1
    28    13    28    1
    29    13    29    1
    30    14    30    1
    31    15    31    1
    32    15    32    1
    33    15    33    1
