@<TRIPOS>MOLECULE
24801332
 50 53 0 0 0
SMALL
GASTEIGER

@<TRIPOS>ATOM
      1  C         65.6710   15.8310   12.2850 C.ar    1  UNL1        0.0378
      2  C         65.4060   15.8630   13.6570 C.ar    1  UNL1       -0.0368
      3  C         66.1060   14.9720   14.4530 C.ar    1  UNL1        0.0501
      4  C         67.0140   14.0560   13.9530 C.ar    1  UNL1        0.0494
      5  C         67.5070   13.2650   15.0870 C.2     1  UNL1        0.2539
      6  N         66.8770   13.7510   16.2020 N.am    1  UNL1       -0.2316
      7  O         68.3040   12.3520   14.9900 O.2     1  UNL1       -0.2695
      8  C         67.2870   13.9940   12.6020 C.ar    1  UNL1       -0.0482
      9  C         66.0320   14.7820   15.8910 C.2     1  UNL1        0.2539
     10  O         65.3190   15.4520   16.6120 O.2     1  UNL1       -0.2695
     11  C         66.6040   14.8940   11.7660 C.ar    1  UNL1       -0.0489
     12  N         64.1790   17.7310   11.8960 N.am    1  UNL1       -0.2815
     13  C         64.9360   16.7140   11.3300 C.2     1  UNL1        0.2483
     14  O         65.0840   16.4920   10.1340 O.2     1  UNL1       -0.2699
     15  C         60.6910   21.2080    8.9240 C.3     1  UNL1       -0.0395
     16  C         61.5700   20.2870    9.7260 C.ar    1  UNL1       -0.0474
     17  C         61.3300   18.9020    9.7940 C.ar    1  UNL1       -0.0458
     18  C         60.1580   18.2840    9.0780 C.3     1  UNL1       -0.0394
     19  C         62.2120   18.0820   10.5310 C.ar    1  UNL1       -0.0373
     20  C         63.3190   18.6190   11.2040 C.ar    1  UNL1        0.0339
     21  C         63.5380   19.9920   11.1320 C.ar    1  UNL1       -0.0402
     22  C         62.6750   20.8160   10.4040 C.ar    1  UNL1       -0.0568
     23  C         67.0440   13.2510   17.5630 C.3     1  UNL1        0.0492
     24  C         66.3320   11.9120   17.7710 C.3     1  UNL1        0.0749
     25  O         67.1320   10.7800   17.3870 O.3     1  UNL1       -0.3750
     26  C         66.2150    9.6790   17.2090 C.3     1  UNL1        0.0482
     27  C         64.8110   10.2660   17.1580 C.3     1  UNL1       -0.0271
     28  C         65.0700   11.7410   16.9470 C.3     1  UNL1       -0.0230
     29 H          64.7197   16.5209   14.0586 H       1  UNL1        0.0633
     30 H          67.9645   13.3150   12.2212 H       1  UNL1        0.0625
     31 H          66.7848   14.8736   10.7502 H       1  UNL1        0.0625
     32 H          64.2463   17.8460   12.8714 H       1  UNL1        0.1551
     33 H          59.9000   20.6446    8.4748 H       1  UNL1        0.0278
     34 H          61.2721   21.6793    8.1591 H       1  UNL1        0.0278
     35 H          60.2758   21.9550    9.5678 H       1  UNL1        0.0278
     36 H          59.6031   19.0488    8.5759 H       1  UNL1        0.0278
     37 H          59.5258   17.7920    9.7873 H       1  UNL1        0.0278
     38 H          60.5124   17.5722    8.3621 H       1  UNL1        0.0278
     39 H          62.0383   17.0657   10.5754 H       1  UNL1        0.0639
     40 H          64.3466   20.4060   11.6216 H       1  UNL1        0.0636
     41 H          62.8553   21.8314   10.3656 H       1  UNL1        0.0621
     42 H          66.6395   13.9677   18.2468 H       1  UNL1        0.0495
     43 H          68.0893   13.1008   17.7350 H       1  UNL1        0.0495
     44 H          66.1221   11.9397   18.8198 H       1  UNL1        0.0612
     45 H          66.4312    9.1659   16.2953 H       1  UNL1        0.0560
     46 H          66.3042    8.9769   18.0115 H       1  UNL1        0.0560
     47 H          64.2503    9.8533   16.3454 H       1  UNL1        0.0288
     48 H          64.2340   10.0591   18.0350 H       1  UNL1        0.0288
     49 H          64.2677   12.3419   17.3214 H       1  UNL1        0.0291
     50 H          65.1583   12.0394   15.9233 H       1  UNL1        0.0291
@<TRIPOS>BOND
     1    15    16    1
     2    18    17    1
     3    16    17   ar
     4    16    22   ar
     5    17    19   ar
     6    14    13    2
     7    22    21   ar
     8    19    20   ar
     9    21    20   ar
    10    20    12    1
    11    13    12   am
    12    13     1    1
    13    11     1   ar
    14    11     8   ar
    15     1     2   ar
    16     8     4   ar
    17     2     3   ar
    18     4     3   ar
    19     4     5    1
    20     3     9    1
    21     7     5    2
    22     5     6   am
    23     9     6   am
    24     9    10    2
    25     6    23    1
    26    28    27    1
    27    28    24    1
    28    27    26    1
    29    26    25    1
    30    25    24    1
    31    23    24    1
    32     2    29    1
    33     8    30    1
    34    11    31    1
    35    12    32    1
    36    15    33    1
    37    15    34    1
    38    15    35    1
    39    18    36    1
    40    18    37    1
    41    18    38    1
    42    19    39    1
    43    21    40    1
    44    22    41    1
    45    23    42    1
    46    23    43    1
    47    24    44    1
    48    26    45    1
    49    26    46    1
    50    27    47    1
    51    27    48    1
    52    28    49    1
    53    28    50    1
