@<TRIPOS>MOLECULE
26665014
 29 30 0 0 0
SMALL
GASTEIGER

@<TRIPOS>ATOM
      1  C         66.7920   15.3030   16.7670 C.3     1  UNL1       -0.0403
      2  N         66.8040   14.6010   15.4910 N.4     1  UNL1        0.2605
      3  C         66.2110   15.1750   14.3720 C.3     1  UNL1        0.1788
      4  S         66.2490   14.2360   12.8650 S.3     1  UNL1        0.0434
      5  S         65.5680   15.7500   11.7320 S.3     1  UNL1        0.2053
      6  C         65.1310   16.7440   13.1270 C.cat   1  UNL1        0.4055
      7  N         64.4140   17.8200   13.0690 N.pl3   1  UNL1       -0.1691
      8  N         65.6210   16.3360   14.3520 N.2     1  UNL1       -0.0103
      9  C         67.6590   13.4190   15.4180 C.3     1  UNL1       -0.0403
     10  C         63.9170   18.1820   11.7310 C.3     1  UNL1        0.1076
     11  C         62.4380   18.1420   11.5720 C.ar    1  UNL1        0.1255
     12  C         61.4900   18.8450   10.8650 C.ar    1  UNL1       -0.0190
     13  C         60.2400   18.2300   11.1420 C.ar    1  UNL1       -0.0236
     14  C         60.5040   17.1930   12.0060 C.ar    1  UNL1        0.0921
     15  O         61.8290   17.1320   12.2740 O.2     1  UNL1       -0.4661
     16 H          66.1360   16.1460   16.7041 H       1  UNL1        0.0778
     17 H          67.7814   15.6376   16.9993 H       1  UNL1        0.0778
     18 H          66.4497   14.6412   17.5350 H       1  UNL1        0.0778
     19 H          65.9238   14.1008   15.3662 H       1  UNL1        0.2061
     20 H          66.2813   15.8658   15.1861 H       1  UNL1        0.1300
     21 H          64.2141   18.3608   13.8670 H       1  UNL1        0.1976
     22 H          68.6822   13.7115   15.5294 H       1  UNL1        0.0778
     23 H          67.5260   12.9406   14.4702 H       1  UNL1        0.0778
     24 H          67.3951   12.7390   16.2009 H       1  UNL1        0.0778
     25 H          64.2465   19.1765   11.5134 H       1  UNL1        0.0580
     26 H          64.3077   17.4457   11.0600 H       1  UNL1        0.0580
     27 H          61.6548   19.6596   10.2532 H       1  UNL1        0.0652
     28 H          59.3180   18.5061   10.7694 H       1  UNL1        0.0649
     29 H          59.7935   16.5531   12.3943 H       1  UNL1        0.1029
@<TRIPOS>BOND
     1    12    13   ar
     2    12    11   ar
     3    13    14   ar
     4    11    10    1
     5    11    15   ar
     6    10     7    1
     7     5     4    1
     8     5     6    1
     9    14    15   ar
    10     4     3    1
    11     7     6    1
    12     6     8    2
    13     8     3    1
    14     3     2    1
    15     9     2    1
    16     2     1    1
    17     1    16    1
    18     1    17    1
    19     1    18    1
    20     2    19    1
    21     3    20    1
    22     7    21    1
    23     9    22    1
    24     9    23    1
    25     9    24    1
    26    10    25    1
    27    10    26    1
    28    12    27    1
    29    13    28    1
    30    14    29    1
