@<TRIPOS>MOLECULE
50085961
 33 33 0 0 0
SMALL
GASTEIGER

@<TRIPOS>ATOM
      1  C         62.6590   16.6800   11.4000 C.3     1  UNL1        0.1198
      2  C         62.6100   18.1410   11.0330 C.ar    1  UNL1       -0.0104
      3  C         63.5180   19.0070   11.6550 C.ar    1  UNL1       -0.0107
      4  C         63.4640   20.3770   11.4100 C.ar    1  UNL1        0.1586
      5  C         62.5230   20.9000   10.5370 C.ar    1  UNL1        0.1582
      6  C         61.6120   20.0650    9.9080 C.ar    1  UNL1       -0.0162
      7  C         61.6560   18.6820   10.1580 C.ar    1  UNL1       -0.0523
      8  O         64.3520   21.1910   12.0460 O.3     1  UNL1       -0.5033
      9  O         62.5320   22.2540   10.3420 O.3     1  UNL1       -0.5033
     10  O         61.7970   16.3240   12.4860 O.3     1  UNL1       -0.3819
     11  C         64.0880   16.2530   11.7830 C.3     1  UNL1       -0.0026
     12  N         64.0080   15.3470   12.9870 N.4     1  UNL1        0.2308
     13  C         66.2810   14.5640   12.5760 C.3     1  UNL1       -0.0219
     14  C         65.3000   14.9920   13.6610 C.3     1  UNL1       -0.0283
     15  C         65.8360   16.1900   14.4330 C.3     1  UNL1       -0.0219
     16 H          62.3217   16.1703   10.5218 H       1  UNL1        0.0698
     17 H          64.2307   18.6281   12.2981 H       1  UNL1        0.0659
     18 H          60.9080   20.4551    9.2621 H       1  UNL1        0.0655
     19 H          60.9788   18.0577    9.6925 H       1  UNL1        0.0622
     20 H          64.3318   22.1154   11.8945 H       1  UNL1        0.2923
     21 H          61.9123   22.6476    9.7597 H       1  UNL1        0.2923
     22 H          62.0884   16.7779   13.2922 H       1  UNL1        0.2105
     23 H          64.6723   17.1176   12.0196 H       1  UNL1        0.0843
     24 H          64.5494   15.7387   10.9660 H       1  UNL1        0.0843
     25 H          63.5679   14.4767   12.6881 H       1  UNL1        0.2017
     26 H          63.4842   15.8779   13.6828 H       1  UNL1        0.2017
     27 H          65.8838   13.7224   12.0479 H       1  UNL1        0.0284
     28 H          67.2144   14.2953   13.0249 H       1  UNL1        0.0284
     29 H          66.4335   15.3738   11.8935 H       1  UNL1        0.0284
     30 H          65.1562   14.1964   14.3619 H       1  UNL1        0.0845
     31 H          65.9920   17.0072   13.7601 H       1  UNL1        0.0284
     32 H          66.7637   15.9287   14.8979 H       1  UNL1        0.0284
     33 H          65.1290   16.4760   15.1836 H       1  UNL1        0.0284
@<TRIPOS>BOND
     1     6     7   ar
     2     6     5   ar
     3     7     2   ar
     4     9     5    1
     5     5     4   ar
     6     2     1    1
     7     2     3   ar
     8     1    11    1
     9     1    10    1
    10     4     3   ar
    11     4     8    1
    12    11    12    1
    13    13    14    1
    14    12    14    1
    15    14    15    1
    16     1    16    1
    17     3    17    1
    18     6    18    1
    19     7    19    1
    20     8    20    1
    21     9    21    1
    22    10    22    1
    23    11    23    1
    24    11    24    1
    25    12    25    1
    26    12    26    1
    27    13    27    1
    28    13    28    1
    29    13    29    1
    30    14    30    1
    31    15    31    1
    32    15    32    1
    33    15    33    1
