@<TRIPOS>MOLECULE
11532990
 47 48 0 0 0
SMALL
GASTEIGER

@<TRIPOS>ATOM
      1  C         62.9830   16.8040   12.4370 C.3     1  UNL1        0.1198
      2  C         62.5200   17.7000   11.3050 C.ar    1  UNL1       -0.0121
      3  C         63.3650   18.7210   10.8270 C.ar    1  UNL1       -0.0311
      4  C         62.9250   19.6020    9.8280 C.ar    1  UNL1        0.0755
      5  C         61.6340   19.4800    9.3120 C.ar    1  UNL1        0.1380
      6  C         60.7930   18.4670    9.7470 C.ar    1  UNL1       -0.0180
      7  C         61.2350   17.5860   10.7390 C.ar    1  UNL1       -0.0524
      8  N         63.7270   20.6250    9.2870 N.am    1  UNL1       -0.2852
      9  C         64.3620   21.5860   10.0300 C.2     1  UNL1        0.2042
     10  O         64.2860   21.7410   11.2420 O.2     1  UNL1       -0.2792
     11  O         61.2460   20.3520    8.3310 O.3     1  UNL1       -0.5049
     12  O         61.9990   15.7950   12.7230 O.3     1  UNL1       -0.3819
     13  C         64.3290   16.0680   12.2240 C.3     1  UNL1       -0.0022
     14  N         64.6740   15.1680   13.3740 N.4     1  UNL1        0.2343
     15  C         65.8620   14.2470   13.2750 C.3     1  UNL1        0.0004
     16  C         66.3820   14.2600   11.8400 C.3     1  UNL1       -0.0173
     17  C         68.4360   14.8770   16.6960 C.ar    1  UNL1        0.1201
     18  C         68.7390   13.9280   15.7330 C.ar    1  UNL1       -0.0195
     19  C         67.9340   13.8110   14.5990 C.ar    1  UNL1       -0.0498
     20  C         66.8040   14.6290   14.4020 C.ar    1  UNL1        0.0001
     21  C         66.5610   15.6440   15.3400 C.ar    1  UNL1       -0.0498
     22  C         67.3840   15.7690   16.4750 C.ar    1  UNL1       -0.0195
     23  C         69.9410   13.9140   18.2390 C.3     1  UNL1        0.0788
     24  O         69.1450   15.0340   17.8640 O.3     1  UNL1       -0.4951
     25 H          63.1248   17.4931   13.2431 H       1  UNL1        0.0698
     26 H          64.3159   18.8216   11.2152 H       1  UNL1        0.0641
     27 H          59.8493   18.3641    9.3423 H       1  UNL1        0.0655
     28 H          60.6056   16.8354   11.0638 H       1  UNL1        0.0622
     29 H          63.8392   20.6519    8.3093 H       1  UNL1        0.1546
     30 H          64.9656   22.2461    9.5153 H       1  UNL1        0.1255
     31 H          60.3850   20.2936    7.9660 H       1  UNL1        0.2922
     32 H          61.9132   15.2017   11.9604 H       1  UNL1        0.2105
     33 H          65.1052   16.7959   12.1118 H       1  UNL1        0.0843
     34 H          64.2345   15.4595   11.3490 H       1  UNL1        0.0843
     35 H          63.8580   14.5800   13.5437 H       1  UNL1        0.2021
     36 H          64.9414   15.8197   14.1117 H       1  UNL1        0.2021
     37 H          65.6562   13.2088   13.4321 H       1  UNL1        0.0901
     38 H          66.6275   15.2627   11.5587 H       1  UNL1        0.0288
     39 H          65.6272   13.8801   11.1837 H       1  UNL1        0.0288
     40 H          67.2558   13.6463   11.7717 H       1  UNL1        0.0288
     41 H          69.5567   13.3101   15.8538 H       1  UNL1        0.0654
     42 H          68.1732   13.1055   13.8848 H       1  UNL1        0.0623
     43 H          65.7773   16.3001   15.1974 H       1  UNL1        0.0623
     44 H          67.2082   16.5282   17.1515 H       1  UNL1        0.0654
     45 H          70.4516   14.1297   19.1543 H       1  UNL1        0.0660
     46 H          70.6572   13.7120   17.4701 H       1  UNL1        0.0660
     47 H          69.3122   13.0589   18.3743 H       1  UNL1        0.0660
@<TRIPOS>BOND
     1    11     5    1
     2     8     4    1
     3     8     9   am
     4     5     6   ar
     5     5     4   ar
     6     6     7   ar
     7     4     3   ar
     8     9    10    2
     9     7     2   ar
    10     3     2   ar
    11     2     1    1
    12    16    15    1
    13    13     1    1
    14    13    14    1
    15     1    12    1
    16    15    14    1
    17    15    20    1
    18    20    19   ar
    19    20    21   ar
    20    19    18   ar
    21    21    22   ar
    22    18    17   ar
    23    22    17   ar
    24    17    24    1
    25    24    23    1
    26     1    25    1
    27     3    26    1
    28     6    27    1
    29     7    28    1
    30     8    29    1
    31     9    30    1
    32    11    31    1
    33    12    32    1
    34    13    33    1
    35    13    34    1
    36    14    35    1
    37    14    36    1
    38    15    37    1
    39    16    38    1
    40    16    39    1
    41    16    40    1
    42    18    41    1
    43    19    42    1
    44    21    43    1
    45    22    44    1
    46    23    45    1
    47    23    46    1
    48    23    47    1
