@<TRIPOS>MOLECULE
24801332
 50 53 0 0 0
SMALL
GASTEIGER

@<TRIPOS>ATOM
      1  C         65.6800   15.8290   12.2990 C.ar    1  UNL1        0.0378
      2  C         65.4160   15.8560   13.6710 C.ar    1  UNL1       -0.0368
      3  C         66.1170   14.9630   14.4640 C.ar    1  UNL1        0.0501
      4  C         67.0250   14.0490   13.9640 C.ar    1  UNL1        0.0494
      5  C         67.5200   13.2550   15.1000 C.2     1  UNL1        0.2539
      6  N         66.8880   13.7420   16.2140 N.am    1  UNL1       -0.2316
      7  O         68.3240   12.3490   15.0030 O.2     1  UNL1       -0.2695
      8  C         67.2980   13.9910   12.6120 C.ar    1  UNL1       -0.0482
      9  C         66.0480   14.7750   15.9040 C.2     1  UNL1        0.2539
     10  O         65.3400   15.4480   16.6260 O.2     1  UNL1       -0.2695
     11  C         66.6120   14.8920   11.7780 C.ar    1  UNL1       -0.0489
     12  N         64.1800   17.7260   11.9100 N.am    1  UNL1       -0.2815
     13  C         64.9440   16.7120   11.3490 C.2     1  UNL1        0.2483
     14  O         65.1000   16.4940   10.1520 O.2     1  UNL1       -0.2699
     15  C         60.7070   21.2030    8.9130 C.3     1  UNL1       -0.0395
     16  C         61.5800   20.2820    9.7240 C.ar    1  UNL1       -0.0474
     17  C         61.3350   18.8980    9.7970 C.ar    1  UNL1       -0.0458
     18  C         60.1660   18.2820    9.0760 C.3     1  UNL1       -0.0394
     19  C         62.2140   18.0800   10.5390 C.ar    1  UNL1       -0.0373
     20  C         63.3230   18.6150   11.2140 C.ar    1  UNL1        0.0339
     21  C         63.5430   19.9890   11.1380 C.ar    1  UNL1       -0.0402
     22  C         62.6840   20.8120   10.4030 C.ar    1  UNL1       -0.0568
     23  C         67.0570   13.2480   17.5750 C.3     1  UNL1        0.0492
     24  C         66.3470   11.9070   17.7840 C.3     1  UNL1        0.0749
     25  O         67.1340   10.7770   17.3730 O.3     1  UNL1       -0.3750
     26  C         66.2080    9.6820   17.2040 C.3     1  UNL1        0.0482
     27  C         64.8060   10.2760   17.1920 C.3     1  UNL1       -0.0271
     28  C         65.0660   11.7490   16.9900 C.3     1  UNL1       -0.0230
     29 H          64.7294   16.5120   14.0751 H       1  UNL1        0.0633
     30 H          67.9771   13.3147   12.2293 H       1  UNL1        0.0625
     31 H          66.7902   14.8719   10.7617 H       1  UNL1        0.0625
     32 H          64.2391   17.8387   12.8862 H       1  UNL1        0.1551
     33 H          59.9156   20.6403    8.4636 H       1  UNL1        0.0278
     34 H          61.2930   21.6680    8.1480 H       1  UNL1        0.0278
     35 H          60.2922   21.9550    9.5512 H       1  UNL1        0.0278
     36 H          59.6147   19.0476    8.5712 H       1  UNL1        0.0278
     37 H          59.5297   17.7911    9.7824 H       1  UNL1        0.0278
     38 H          60.5227   17.5695    8.3619 H       1  UNL1        0.0278
     39 H          62.0374   17.0643   10.5866 H       1  UNL1        0.0639
     40 H          64.3496   20.4041   11.6301 H       1  UNL1        0.0636
     41 H          62.8667   21.8268   10.3603 H       1  UNL1        0.0621
     42 H          66.6507   13.9653   18.2571 H       1  UNL1        0.0495
     43 H          68.1026   13.1022   17.7491 H       1  UNL1        0.0495
     44 H          66.1623   11.9238   18.8378 H       1  UNL1        0.0612
     45 H          66.4007    9.1782   16.2799 H       1  UNL1        0.0560
     46 H          66.3124    8.9705   17.9963 H       1  UNL1        0.0560
     47 H          64.2244    9.8740   16.3889 H       1  UNL1        0.0288
     48 H          64.2491   10.0630   18.0805 H       1  UNL1        0.0288
     49 H          64.2755   12.3493   17.3896 H       1  UNL1        0.0291
     50 H          65.1311   12.0570   15.9674 H       1  UNL1        0.0291
@<TRIPOS>BOND
     1    15    16    1
     2    18    17    1
     3    16    17   ar
     4    16    22   ar
     5    17    19   ar
     6    14    13    2
     7    22    21   ar
     8    19    20   ar
     9    21    20   ar
    10    20    12    1
    11    13    12   am
    12    13     1    1
    13    11     1   ar
    14    11     8   ar
    15     1     2   ar
    16     8     4   ar
    17     2     3   ar
    18     4     3   ar
    19     4     5    1
    20     3     9    1
    21     7     5    2
    22     5     6   am
    23     9     6   am
    24     9    10    2
    25     6    23    1
    26    28    27    1
    27    28    24    1
    28    27    26    1
    29    26    25    1
    30    25    24    1
    31    23    24    1
    32     2    29    1
    33     8    30    1
    34    11    31    1
    35    12    32    1
    36    15    33    1
    37    15    34    1
    38    15    35    1
    39    18    36    1
    40    18    37    1
    41    18    38    1
    42    19    39    1
    43    21    40    1
    44    22    41    1
    45    23    42    1
    46    23    43    1
    47    24    44    1
    48    26    45    1
    49    26    46    1
    50    27    47    1
    51    27    48    1
    52    28    49    1
    53    28    50    1
