@<TRIPOS>MOLECULE
17509418
 58 60 0 0 0
SMALL
GASTEIGER

@<TRIPOS>ATOM
      1  C         73.6520   25.2970   15.0960 C.3     1  UNL1        0.1570
      2  C         74.1980   24.2990   14.0180 C.3     1  UNL1       -0.0289
      3  C         74.4650   25.0820   16.4110 C.ar    1  UNL1        0.0739
      4  N         73.8700   24.3700   17.4090 N.ar    1  UNL1       -0.2572
      5  C         74.6030   24.0120   18.4840 C.ar    1  UNL1        0.0280
      6  C         75.9270   24.3580   18.6510 C.ar    1  UNL1       -0.0436
      7  C         76.5250   25.1290   17.6640 C.ar    1  UNL1       -0.0586
      8  C         75.7940   25.4900   16.5310 C.ar    1  UNL1       -0.0378
      9  C         72.1630   24.7890   15.2880 C.2     1  UNL1        0.2470
     10  N         71.9430   23.4690   14.9110 N.am    1  UNL1       -0.2829
     11  O         71.2610   25.5000   15.7390 O.2     1  UNL1       -0.2727
     12  C         70.8030   22.7090   15.2800 C.ar    1  UNL1        0.0393
     13  C         70.8680   21.7900   16.3500 C.ar    1  UNL1       -0.0290
     14  C         72.1190   21.5470   17.1510 C.3     1  UNL1       -0.0379
     15  C         69.7470   20.9900   16.6310 C.ar    1  UNL1       -0.0571
     16  C         68.5830   21.0960   15.8780 C.ar    1  UNL1       -0.0611
     17  C         68.5270   21.9880   14.8180 C.ar    1  UNL1       -0.0571
     18  C         69.6390   22.7770   14.4860 C.ar    1  UNL1       -0.0290
     19  C         69.4510   23.7380   13.3540 C.3     1  UNL1       -0.0379
     20  N         73.8160   26.7440   14.6250 N.am    1  UNL1       -0.2504
     21  C         73.2710   27.7710   15.4250 C.2     1  UNL1        0.2356
     22  O         72.8470   27.5870   16.5690 O.2     1  UNL1       -0.2739
     23  C         75.9440   27.7220   11.0600 C.ar    1  UNL1        0.1202
     24  C         76.6110   27.6950   12.2880 C.ar    1  UNL1       -0.0182
     25  C         75.9230   27.3810   13.4750 C.ar    1  UNL1       -0.0368
     26  C         74.5650   27.0520   13.4440 C.ar    1  UNL1        0.0380
     27  C         73.9200   27.0390   12.1980 C.ar    1  UNL1       -0.0368
     28  C         74.6040   27.3580   11.0150 C.ar    1  UNL1       -0.0182
     29  C         75.9560   28.9090    9.0110 C.3     1  UNL1        0.0788
     30  O         76.6740   28.1410    9.9810 O.3     1  UNL1       -0.4951
     31  C         73.1060   29.1700   14.8400 C.3     1  UNL1        0.0994
     32 CL         71.7550   29.1790   13.6850 Cl      1  UNL1       -0.1156
     33 H          73.6548   24.4277   13.1052 H       1  UNL1        0.0259
     34 H          74.0759   23.2950   14.3671 H       1  UNL1        0.0259
     35 H          75.2361   24.4929   13.8457 H       1  UNL1        0.0259
     36 H          74.1484   23.4494   19.2201 H       1  UNL1        0.0829
     37 H          76.4563   24.0536   19.4830 H       1  UNL1        0.0633
     38 H          77.5055   25.4340   17.7673 H       1  UNL1        0.0619
     39 H          76.2334   26.0547   15.7873 H       1  UNL1        0.0636
     40 H          72.6241   23.0321   14.3502 H       1  UNL1        0.1549
     41 H          72.8841   22.2233   16.8314 H       1  UNL1        0.0278
     42 H          72.4481   20.5398   17.0018 H       1  UNL1        0.0278
     43 H          71.9141   21.7051   18.1892 H       1  UNL1        0.0278
     44 H          69.7886   20.3130   17.4088 H       1  UNL1        0.0621
     45 H          67.7632   20.5126   16.1074 H       1  UNL1        0.0618
     46 H          67.6583   22.0726   14.2673 H       1  UNL1        0.0621
     47 H          68.4869   23.5876   12.9148 H       1  UNL1        0.0278
     48 H          70.2085   23.5730   12.6166 H       1  UNL1        0.0278
     49 H          69.5231   24.7404   13.7214 H       1  UNL1        0.0278
     50 H          77.6201   27.9079   12.3248 H       1  UNL1        0.0655
     51 H          76.4257   27.3938   14.3762 H       1  UNL1        0.0637
     52 H          72.9198   26.7892   12.1505 H       1  UNL1        0.0637
     53 H          74.1105   27.3221   10.1094 H       1  UNL1        0.0655
     54 H          76.6155   29.1839    8.2145 H       1  UNL1        0.0660
     55 H          75.5666   29.7923    9.4726 H       1  UNL1        0.0660
     56 H          75.1488   28.3253    8.6203 H       1  UNL1        0.0660
     57 H          72.9044   29.8642   15.6289 H       1  UNL1        0.0525
     58 H          74.0063   29.4522   14.3353 H       1  UNL1        0.0525
@<TRIPOS>BOND
     1    29    30    1
     2    30    23    1
     3    28    23   ar
     4    28    27   ar
     5    23    24   ar
     6    27    26   ar
     7    24    25   ar
     8    19    18    1
     9    26    25   ar
    10    26    20    1
    11    32    31    1
    12     2     1    1
    13    18    17   ar
    14    18    12   ar
    15    20     1    1
    16    20    21   am
    17    17    16   ar
    18    31    21    1
    19    10    12    1
    20    10     9   am
    21     1     9    1
    22     1     3    1
    23    12    13   ar
    24     9    11    2
    25    21    22    2
    26    16    15   ar
    27    13    15   ar
    28    13    14    1
    29     3     8   ar
    30     3     4   ar
    31     8     7   ar
    32     4     5   ar
    33     7     6   ar
    34     5     6   ar
    35     2    33    1
    36     2    34    1
    37     2    35    1
    38     5    36    1
    39     6    37    1
    40     7    38    1
    41     8    39    1
    42    10    40    1
    43    14    41    1
    44    14    42    1
    45    14    43    1
    46    15    44    1
    47    16    45    1
    48    17    46    1
    49    19    47    1
    50    19    48    1
    51    19    49    1
    52    24    50    1
    53    25    51    1
    54    27    52    1
    55    28    53    1
    56    29    54    1
    57    29    55    1
    58    29    56    1
    59    31    57    1
    60    31    58    1
