#	Name:			<unnamed>
#	Creating user name:	yxyuan
#	Creation time:		Sat Feb  4 17:18:51 2012

#	Modifying user name:	yxyuan
#	Modification time:	Sat Feb  4 17:24:46 2012

@<TRIPOS>MOLECULE
****
    8     7     1     0     0
SMALL
USER_CHARGES
INVALID_CHARGES

@<TRIPOS>ATOM
      1 H1         57.2921   25.2384   45.6584 H         1 <1>         0.0000 
      2 H2         59.7375   26.5591   46.9264 H         1 <1>         0.0000 
      3 C23        59.3260   25.8490   46.1940 C.3       1 <1>        -0.0540 
      4 C24        57.8570   25.4940   46.5670 C.3       1 <1>         0.0050 
      5 H17        59.9257   24.9269   46.1912 H         1 <1>         0.1020 
      6 H18        59.3400   26.2986   45.1902 H         1 <1>         0.0710 
      7 H19        57.3938   26.3607   47.0613 H.spc     1 <1>         0.0630 
      8 H20        57.8599   24.6369   47.2565 H.spc     1 <1>         0.0800 
@<TRIPOS>BOND
     1    4    1 1    
     2    3    2 1    
     3    3    6 1    
     4    3    5 1    
     5    3    4 1    
     6    4    8 1    
     7    4    7 1    
@<TRIPOS>SUBSTRUCTURE
     1 ****        2 TEMP              0 ****  ****    0 ROOT 
