#	Name:			<unnamed>
#	Creating user name:	yxyuan
#	Creation time:		Fri Feb  3 19:55:59 2012

#	Modifying user name:	yxyuan
#	Modification time:	Fri Feb  3 19:55:59 2012

@<TRIPOS>MOLECULE
****
    5     4     1     0     0
SMALL
USER_CHARGES
INVALID_CHARGES

@<TRIPOS>ATOM
      1 H1         57.2921   25.2384   45.6584 H         1 <1>         0.0000 
      2 H4         58.8926   25.7429   46.2920 H.spc     1 <1>         0.0000 
      3 C24        57.8570   25.4940   46.5670 C.3       1 <1>         0.0050 
      4 H19        57.3938   26.3607   47.0613 H.spc     1 <1>         0.0630 
      5 H20        57.8599   24.6369   47.2565 H         1 <1>         0.0800 
@<TRIPOS>BOND
     1    3    2 1    
     2    3    1 1    
     3    3    4 1    
     4    3    5 1    
@<TRIPOS>SUBSTRUCTURE
     1 ****        3 TEMP              0 ****  ****    0 ROOT 
