#	Name:			<unnamed>
#	Creating user name:	yxyuan
#	Creation time:		Sat Feb  4 17:40:13 2012

#	Modifying user name:	yxyuan
#	Modification time:	Sat Feb  4 17:40:13 2012

@<TRIPOS>MOLECULE
****
    5     4     1     0     0
SMALL
USER_CHARGES
INVALID_CHARGES

@<TRIPOS>ATOM
      1 H1         58.2894   25.6113   46.4749 H         1 <1>         0.0000 
      2 H2         59.7489   26.5592   46.9198 H.spc     1 <1>         0.0000 
      3 C23        59.3260   25.8490   46.1940 C.3       1 <1>        -0.0540 
      4 H17        59.9257   24.9269   46.1912 H         1 <1>         0.1020 
      5 H18        59.3400   26.2986   45.1902 H         1 <1>         0.0710 
@<TRIPOS>BOND
     1    3    2 1    
     2    3    1 1    
     3    3    4 1    
     4    3    5 1    
@<TRIPOS>SUBSTRUCTURE
     1 ****        3 TEMP              0 ****  ****    0 ROOT 
