@<TRIPOS>MOLECULE
*****
 59 60 0 0 0
SMALL
GASTEIGER

@<TRIPOS>ATOM
      1 C          14.7130   33.9060   87.1730 C.3     1  UNL1       -0.0502
      2 C          14.6140   32.5690   86.4340 C.3     1  UNL1       -0.0373
      3 C          15.9630   32.2410   85.7900 C.3     1  UNL1        0.0119
      4 N          17.0310   32.4280   86.7740 N.am    1  UNL1       -0.3108
      5 C          18.1050   33.1820   86.4680 C.2     1  UNL1        0.2544
      6 O          18.1870   33.7080   85.3730 O.2     1  UNL1       -0.2694
      7 C          19.1800   33.3680   87.4550 C.2     1  UNL1        0.1138
      8 C          19.6640   34.6320   87.7160 C.2     1  UNL1       -0.0320
      9 C          20.8320   34.8030   88.5820 C.ar    1  UNL1       -0.0200
     10 C          20.6720   35.2580   89.8990 C.ar    1  UNL1       -0.0093
     11 C          21.7770   35.4170   90.7090 C.ar    1  UNL1        0.1588
     12 C          23.0510   35.1270   90.2180 C.ar    1  UNL1        0.1582
     13 C          23.2120   34.6770   88.9130 C.ar    1  UNL1       -0.0160
     14 C          22.1150   34.5080   88.0990 C.ar    1  UNL1       -0.0509
     15 O          24.1360   35.2850   91.0180 O.3     1  UNL1       -0.5033
     16 O          21.6260   35.8580   91.9870 O.3     1  UNL1       -0.5033
     17 C          19.7220   32.2370   88.1450 C.1     1  UNL1        0.1044
     18 N          20.1520   31.3390   88.6930 N.1     1  UNL1       -0.1907
     19 C          14.4370   33.6880   88.6620 C.3     1  UNL1       -0.0373
     20 C          15.7610   33.6550   89.4280 C.3     1  UNL1        0.0119
     21 C          16.5560   34.1180   91.6830 C.2     1  UNL1        0.2544
     22 N          15.5170   33.9580   90.8400 N.am    1  UNL1       -0.3108
     23 O          17.6950   34.0130   91.2720 O.2     1  UNL1       -0.2694
     24 C          16.5370   35.6920   93.5840 C.2     1  UNL1       -0.0320
     25 C          16.3100   34.4210   93.1020 C.2     1  UNL1        0.1138
     26 C          17.4830   35.6030   95.8800 C.ar    1  UNL1       -0.0509
     27 C          16.4340   35.9600   95.0210 C.ar    1  UNL1       -0.0200
     28 C          15.2860   36.5750   95.5410 C.ar    1  UNL1       -0.0093
     29 C          15.1950   36.8240   96.8950 C.ar    1  UNL1        0.1588
     30 C          16.2440   36.4660   97.7430 C.ar    1  UNL1        0.1582
     31 C          17.3830   35.8560   97.2290 C.ar    1  UNL1       -0.0160
     32 O          16.1530   36.7120   99.0740 O.3     1  UNL1       -0.5033
     33 O          14.0840   37.4210   97.4030 O.3     1  UNL1       -0.5033
     34 C          15.8350   33.3960   93.9820 C.1     1  UNL1        0.1044
     35 N          15.4580   32.5830   94.6800 N.1     1  UNL1       -0.1907
     36 H          13.9927   34.5887   86.7730 H       1  UNL1        0.0266
     37 H          15.6957   34.3104   87.0481 H       1  UNL1        0.0266
     38 H          13.8631   32.6359   85.6746 H       1  UNL1        0.0280
     39 H          14.3525   31.7969   87.1271 H       1  UNL1        0.0280
     40 H          16.1280   32.8913   84.9564 H       1  UNL1        0.0462
     41 H          15.9607   31.2250   85.4543 H       1  UNL1        0.0462
     42 H          16.9644   32.0027   87.6594 H       1  UNL1        0.1490
     43 H          19.2034   35.4572   87.3013 H       1  UNL1        0.0638
     44 H          19.7299   35.4733   90.2611 H       1  UNL1        0.0661
     45 H          24.1566   34.4690   88.5533 H       1  UNL1        0.0655
     46 H          22.2367   34.1643   87.1336 H       1  UNL1        0.0625
     47 H          24.0290   35.5883   91.8981 H       1  UNL1        0.2923
     48 H          20.7711   36.0529   92.3174 H       1  UNL1        0.2923
     49 H          13.9238   32.7589   88.7971 H       1  UNL1        0.0280
     50 H          13.8309   34.4881   89.0327 H       1  UNL1        0.0280
     51 H          16.4287   34.3833   89.0173 H       1  UNL1        0.0462
     52 H          16.1977   32.6819   89.3428 H       1  UNL1        0.0462
     53 H          14.5946   34.0447   91.1730 H       1  UNL1        0.1490
     54 H          16.7795   36.4551   92.9329 H       1  UNL1        0.0638
     55 H          18.3296   35.1508   95.5009 H       1  UNL1        0.0625
     56 H          14.5115   36.8406   94.9128 H       1  UNL1        0.0661
     57 H          18.1553   35.5924   97.8608 H       1  UNL1        0.0655
     58 H          15.3867   37.1229   99.4232 H       1  UNL1        0.2923
     59 H          13.3796   37.6614   96.8338 H       1  UNL1        0.2923
@<TRIPOS>BOND
     1     1     2    1
     2     1    19    1
     3     1    36    1
     4     1    37    1
     5     2     3    1
     6     2    38    1
     7     2    39    1
     8     3     4    1
     9     3    40    1
    10     3    41    1
    11     4     5   am
    12     4    42    1
    13     5     6    2
    14     5     7    1
    15     7     8    2
    16     7    17    1
    17     8     9    1
    18     8    43    1
    19     9    14   ar
    20     9    10   ar
    21    10    11   ar
    22    10    44    1
    23    11    12   ar
    24    11    16    1
    25    12    13   ar
    26    12    15    1
    27    13    14   ar
    28    13    45    1
    29    14    46    1
    30    15    47    1
    31    16    48    1
    32    17    18    3
    33    19    20    1
    34    19    49    1
    35    19    50    1
    36    20    22    1
    37    20    51    1
    38    20    52    1
    39    21    22   am
    40    21    23    2
    41    21    25    1
    42    22    53    1
    43    24    25    2
    44    24    27    1
    45    24    54    1
    46    25    34    1
    47    26    27   ar
    48    26    31   ar
    49    26    55    1
    50    27    28   ar
    51    28    29   ar
    52    28    56    1
    53    29    33    1
    54    29    30   ar
    55    30    31   ar
    56    30    32    1
    57    31    57    1
    58    32    58    1
    59    33    59    1
    60    34    35    3
