@<TRIPOS>MOLECULE
*****
 33 34 0 0 0
SMALL
GASTEIGER

@<TRIPOS>ATOM
      1 C          16.7040   35.8260   93.7680 C.2     1  UNL1       -0.0333
      2 C          16.4620   35.1620   94.9530 C.2     1  UNL1        0.0994
      3 C          15.3300   34.8450   91.9460 C.ar    1  UNL1       -0.0509
      4 C          15.2310   34.1770   90.7470 C.ar    1  UNL1       -0.0160
      5 C          16.3760   33.7670   90.0770 C.ar    1  UNL1        0.1582
      6 C          17.6380   34.0320   90.6150 C.ar    1  UNL1        0.1588
      7 C          17.7490   34.7010   91.8160 C.ar    1  UNL1       -0.0093
      8 C          16.5930   35.1150   92.4940 C.ar    1  UNL1       -0.0200
      9 O          16.2710   33.1080   88.8950 O.3     1  UNL1       -0.5033
     10 O          18.7560   33.6270   89.9560 O.3     1  UNL1       -0.5033
     11 C          16.7630   35.8140   96.2360 C.2     1  UNL1        0.2034
     12 O          17.6500   35.3800   96.9470 O.2     1  UNL1       -0.2859
     13 C          15.9880   36.9960   96.6610 C.ar    1  UNL1        0.0266
     14 C          14.5910   36.9560   96.6560 C.ar    1  UNL1       -0.0472
     15 C          13.8690   38.0600   97.0530 C.ar    1  UNL1       -0.0159
     16 C          14.5250   39.2140   97.4570 C.ar    1  UNL1        0.1583
     17 C          15.9190   39.2620   97.4650 C.ar    1  UNL1        0.1589
     18 C          16.6490   38.1570   97.0740 C.ar    1  UNL1       -0.0057
     19 O          13.8090   40.3010   97.8460 O.3     1  UNL1       -0.5033
     20 O          16.5580   40.3950   97.8600 O.3     1  UNL1       -0.5033
     21 C          15.9210   33.8360   94.9320 C.1     1  UNL1        0.1030
     22 N          15.4920   32.7840   94.9140 N.1     1  UNL1       -0.1907
     23 H          16.9635   36.8248   93.7802 H       1  UNL1        0.0637
     24 H          14.4765   35.1469   92.4414 H       1  UNL1        0.0625
     25 H          14.3016   33.9799   90.3440 H       1  UNL1        0.0655
     26 H          18.6805   34.8965   92.2149 H       1  UNL1        0.0661
     27 H          15.4260   32.9289   88.5319 H       1  UNL1        0.2923
     28 H          18.6801   33.1725   89.1401 H       1  UNL1        0.2923
     29 H          14.1003   36.0995   96.3549 H       1  UNL1        0.0626
     30 H          12.8375   38.0287   97.0499 H       1  UNL1        0.0655
     31 H          17.6805   38.1879   97.0866 H       1  UNL1        0.0662
     32 H          12.8725   40.2713   97.8415 H       1  UNL1        0.2923
     33 H          16.0620   41.1444   98.1252 H       1  UNL1        0.2923
@<TRIPOS>BOND
     1     1     8    1
     2     1     2    2
     3     1    23    1
     4     2    21    1
     5     2    11    1
     6     3     4   ar
     7     3     8   ar
     8     3    24    1
     9     4     5   ar
    10     4    25    1
    11     5     9    1
    12     5     6   ar
    13     6    10    1
    14     6     7   ar
    15     7     8   ar
    16     7    26    1
    17     9    27    1
    18    10    28    1
    19    11    13    1
    20    11    12    2
    21    13    14   ar
    22    13    18   ar
    23    14    15   ar
    24    14    29    1
    25    15    16   ar
    26    15    30    1
    27    16    17   ar
    28    16    19    1
    29    17    18   ar
    30    17    20    1
    31    18    31    1
    32    19    32    1
    33    20    33    1
    34    21    22    3
