@<TRIPOS>MOLECULE
*****
 47 50 0 0 0
SMALL
GASTEIGER

@<TRIPOS>ATOM
      1 C          17.8580   34.9600   89.6610 C.2     1  UNL1        0.2459
      2 N          17.0470   34.2480   90.4690 N.am    1  UNL1       -0.3110
      3 O          18.2890   36.0370   90.0270 O.2     1  UNL1       -0.2701
      4 C          17.5940   33.3610   86.2760 C.ar    1  UNL1       -0.0609
      5 C          18.9050   33.4400   85.8330 C.ar    1  UNL1       -0.0600
      6 C          19.8780   34.0110   86.6290 C.ar    1  UNL1       -0.0397
      7 C          19.5480   34.5120   87.8810 C.ar    1  UNL1        0.0459
      8 C          18.2220   34.4340   88.3330 C.ar    1  UNL1        0.0579
      9 C          17.2490   33.8480   87.5190 C.ar    1  UNL1       -0.0478
     10 N          20.5270   35.0880   88.6850 N.am    1  UNL1       -0.2783
     11 C          21.3590   34.3040   89.3990 C.2     1  UNL1        0.2836
     12 O          21.3190   33.0940   89.2670 O.2     1  UNL1       -0.2665
     13 C          22.3140   34.9080   90.3340 C.ar    1  UNL1        0.1893
     14 C          23.4660   35.5580   89.9950 C.ar    1  UNL1       -0.0113
     15 C          24.0650   35.9700   91.1960 C.ar    1  UNL1       -0.0231
     16 C          23.2620   35.5570   92.2020 C.ar    1  UNL1        0.0928
     17 O          22.2050   34.9220   91.6780 O.2     1  UNL1       -0.4583
     18 C          16.6850   34.7720   91.7890 C.3     1  UNL1        0.0159
     19 C          17.4350   33.9920   92.8700 C.3     1  UNL1       -0.0101
     20 C          16.5340   33.7910   94.0610 C.ar    1  UNL1       -0.0208
     21 C          15.6330   32.8100   94.2250 C.ar    1  UNL1        0.0060
     22 N          15.0030   32.9510   95.4310 N.ar    1  UNL1       -0.3604
     23 C          15.4950   34.0560   96.0910 C.ar    1  UNL1        0.0468
     24 C          15.2120   34.6400   97.3200 C.ar    1  UNL1       -0.0364
     25 C          15.8900   35.7720   97.7160 C.ar    1  UNL1       -0.0414
     26 C          16.8590   36.3400   96.8980 C.ar    1  UNL1        0.0417
     27 CL         17.7000   37.7660   97.4180 Cl      1  UNL1       -0.0835
     28 C          17.1560   35.7770   95.6770 C.ar    1  UNL1       -0.0340
     29 C          16.4760   34.6300   95.2620 C.ar    1  UNL1        0.0042
     30 H          16.6981   33.3765   90.1725 H       1  UNL1        0.1490
     31 H          16.8728   32.9357   85.6727 H       1  UNL1        0.0618
     32 H          19.1553   33.0699   84.9028 H       1  UNL1        0.0618
     33 H          20.8522   34.0655   86.2927 H       1  UNL1        0.0636
     34 H          16.2732   33.7798   87.8478 H       1  UNL1        0.0626
     35 H          20.6118   36.0677   88.7322 H       1  UNL1        0.1552
     36 H          23.8264   35.7158   89.0410 H       1  UNL1        0.0657
     37 H          24.9511   36.4900   91.2926 H       1  UNL1        0.0649
     38 H          23.4348   35.7063   93.2084 H       1  UNL1        0.1029
     39 H          15.6309   34.6651   91.9384 H       1  UNL1        0.0465
     40 H          16.9501   35.8070   91.8470 H       1  UNL1        0.0465
     41 H          18.3034   34.5413   93.1684 H       1  UNL1        0.0329
     42 H          17.7310   33.0398   92.4821 H       1  UNL1        0.0329
     43 H          15.4434   32.0599   93.5420 H       1  UNL1        0.0810
     44 H          14.3021   32.3519   95.7762 H       1  UNL1        0.1653
     45 H          14.4945   34.2260   97.9355 H       1  UNL1        0.0639
     46 H          15.6761   36.2024   98.6292 H       1  UNL1        0.0633
     47 H          17.8770   36.2003   95.0720 H       1  UNL1        0.0639
@<TRIPOS>BOND
     1     1     8    1
     2     1     3    2
     3     1     2   am
     4     2    18    1
     5     2    30    1
     6     4     5   ar
     7     4     9   ar
     8     4    31    1
     9     5     6   ar
    10     5    32    1
    11     6     7   ar
    12     6    33    1
    13     7     8   ar
    14     7    10    1
    15     8     9   ar
    16     9    34    1
    17    10    11   am
    18    10    35    1
    19    11    12    2
    20    11    13    1
    21    13    14   ar
    22    13    17   ar
    23    14    15   ar
    24    14    36    1
    25    15    16   ar
    26    15    37    1
    27    16    17   ar
    28    16    38    1
    29    18    19    1
    30    18    39    1
    31    18    40    1
    32    19    20    1
    33    19    41    1
    34    19    42    1
    35    20    21   ar
    36    20    29   ar
    37    21    22   ar
    38    21    43    1
    39    22    23   ar
    40    22    44    1
    41    23    29   ar
    42    23    24   ar
    43    24    25   ar
    44    24    45    1
    45    25    26   ar
    46    25    46    1
    47    26    28   ar
    48    26    27    1
    49    28    29   ar
    50    28    47    1
