@<TRIPOS>MOLECULE
*****
 65 70 0 0 0
SMALL
GASTEIGER

@<TRIPOS>ATOM
      1 N          16.7780   33.8620   90.9150 N.pl3   1  UNL1       -0.2977
      2 C          15.6130   33.9120   90.1740 C.ar    1  UNL1        0.1507
      3 C          15.6380   33.6420   88.7860 C.ar    1  UNL1        0.1107
      4 C          16.6380   33.3060   87.8940 C.ar    1  UNL1        0.0083
      5 C          16.0340   33.1660   86.6440 C.ar    1  UNL1       -0.0361
      6 C          14.7050   33.4130   86.7910 C.ar    1  UNL1        0.0303
      7 N          14.4520   33.7020   88.0810 N.ar    1  UNL1       -0.2348
      8 N          13.2800   34.0280   88.7780 N.ar    1  UNL1       -0.1548
      9 C          13.3260   34.2670   90.0600 C.ar    1  UNL1        0.1388
     10 N          14.4620   34.2080   90.7540 N.ar    1  UNL1       -0.2167
     11 N          16.5630   35.1540   96.2800 N.ar    1  UNL1       -0.2594
     12 C          16.7630   35.0190   94.9290 C.ar    1  UNL1        0.0694
     13 C          17.5090   35.7290   93.9920 C.ar    1  UNL1       -0.0343
     14 C          17.5090   35.3440   92.6830 C.ar    1  UNL1       -0.0385
     15 C          16.7650   34.2400   92.2640 C.ar    1  UNL1        0.0332
     16 C          16.0160   33.5190   93.1720 C.ar    1  UNL1       -0.0298
     17 C          16.0080   33.9040   94.5180 C.ar    1  UNL1        0.0215
     18 C          15.3500   33.3890   95.7140 C.ar    1  UNL1        0.0572
     19 N          15.7030   34.1410   96.7180 N.ar    1  UNL1       -0.1782
     20 C          17.1600   36.1880   97.1290 C.3     1  UNL1        0.0673
     21 C          14.0370   38.3040   96.9650 C.ar    1  UNL1       -0.0587
     22 C          14.8920   37.2200   96.8910 C.ar    1  UNL1       -0.0566
     23 C          16.2290   37.3690   97.2110 C.ar    1  UNL1       -0.0234
     24 C          16.7110   38.6030   97.6070 C.ar    1  UNL1       -0.0215
     25 C          15.8550   39.6890   97.6820 C.ar    1  UNL1        0.1237
     26 F          16.3250   40.8940   98.0700 F       1  UNL1       -0.2055
     27 C          14.5170   39.5380   97.3610 C.ar    1  UNL1       -0.0264
     28 C          18.1000   33.1260   88.2100 C.3     1  UNL1        0.0748
     29 O          18.6740   34.3920   88.5430 O.3     1  UNL1       -0.3746
     30 C          20.0380   34.5350   88.1390 C.3     1  UNL1        0.0557
     31 C          20.8060   35.3160   89.2070 C.3     1  UNL1        0.0227
     32 C          20.6190   34.6410   90.5690 C.3     1  UNL1       -0.0385
     33 C          21.4550   35.3840   91.6160 C.3     1  UNL1       -0.0121
     34 C          22.9190   35.4020   91.1730 C.3     1  UNL1       -0.0337
     35 N          23.0340   36.0840   89.8780 N.4     1  UNL1        0.2272
     36 C          22.2940   35.3370   88.8530 C.3     1  UNL1       -0.0287
     37 H          17.6163   33.5611   90.4956 H       1  UNL1        0.1536
     38 H          16.5117   32.9186   85.7633 H       1  UNL1        0.0637
     39 H          14.0031   33.3836   86.0350 H       1  UNL1        0.0830
     40 H          12.4527   34.5100   90.5533 H       1  UNL1        0.1066
     41 H          18.0629   36.5479   94.2881 H       1  UNL1        0.0639
     42 H          18.0654   35.8751   91.9950 H       1  UNL1        0.0637
     43 H          15.4663   32.7027   92.8612 H       1  UNL1        0.0643
     44 H          14.7178   32.5745   95.7572 H       1  UNL1        0.0854
     45 H          18.0941   36.4986   96.7095 H       1  UNL1        0.0559
     46 H          17.3234   35.7936   98.1102 H       1  UNL1        0.0559
     47 H          13.0398   38.1916   96.7244 H       1  UNL1        0.0619
     48 H          14.5320   36.2987   96.5966 H       1  UNL1        0.0621
     49 H          17.7086   38.7147   97.8466 H       1  UNL1        0.0649
     50 H          13.8782   40.3465   97.4174 H       1  UNL1        0.0646
     51 H          18.6021   32.7199   87.3569 H       1  UNL1        0.0610
     52 H          18.2065   32.4568   89.0381 H       1  UNL1        0.0610
     53 H          20.0814   35.0639   87.2099 H       1  UNL1        0.0564
     54 H          20.4781   33.5671   88.0188 H       1  UNL1        0.0564
     55 H          20.4333   36.3181   89.2500 H       1  UNL1        0.0375
     56 H          20.9406   33.6221   90.5111 H       1  UNL1        0.0272
     57 H          19.5860   34.6693   90.8464 H       1  UNL1        0.0272
     58 H          21.3729   34.8849   92.5589 H       1  UNL1        0.0317
     59 H          21.0975   36.3877   91.7140 H       1  UNL1        0.0317
     60 H          23.2749   34.3973   91.0791 H       1  UNL1        0.0814
     61 H          23.5041   35.9229   91.9018 H       1  UNL1        0.0814
     62 H          24.0170   36.1408   89.6116 H       1  UNL1        0.2013
     63 H          22.6437   37.0231   89.9569 H       1  UNL1        0.2013
     64 H          22.4272   35.8096   87.9023 H       1  UNL1        0.0817
     65 H          22.6629   34.3336   88.8091 H       1  UNL1        0.0817
@<TRIPOS>BOND
     1     1     2    1
     2     1    15    1
     3     1    37    1
     4     2     3   ar
     5     2    10   ar
     6     3     4   ar
     7     3     7   ar
     8     4     5   ar
     9     4    28    1
    10     5     6   ar
    11     5    38    1
    12     6     7   ar
    13     6    39    1
    14     7     8   ar
    15     8     9   ar
    16     9    10   ar
    17     9    40    1
    18    11    12   ar
    19    11    19   ar
    20    11    20    1
    21    12    13   ar
    22    12    17   ar
    23    13    14   ar
    24    13    41    1
    25    14    15   ar
    26    14    42    1
    27    15    16   ar
    28    16    17   ar
    29    16    43    1
    30    17    18   ar
    31    18    19   ar
    32    18    44    1
    33    20    23    1
    34    20    45    1
    35    20    46    1
    36    21    22   ar
    37    21    27   ar
    38    21    47    1
    39    22    23   ar
    40    22    48    1
    41    23    24   ar
    42    24    25   ar
    43    24    49    1
    44    25    27   ar
    45    25    26    1
    46    27    50    1
    47    28    29    1
    48    28    51    1
    49    28    52    1
    50    29    30    1
    51    30    31    1
    52    30    53    1
    53    30    54    1
    54    31    36    1
    55    31    32    1
    56    31    55    1
    57    32    33    1
    58    32    56    1
    59    32    57    1
    60    33    34    1
    61    33    58    1
    62    33    59    1
    63    34    35    1
    64    34    60    1
    65    34    61    1
    66    35    36    1
    67    35    62    1
    68    35    63    1
    69    36    64    1
    70    36    65    1
