@<TRIPOS>MOLECULE
*****
 62 63 0 0 0
SMALL
GASTEIGER

@<TRIPOS>ATOM
      1 C          14.8630   31.5860   85.4440 C.3     1  UNL1       -0.0516
      2 C          16.3910   31.5010   85.4570 C.3     1  UNL1       -0.0516
      3 C          16.8920   31.1340   84.0580 C.3     1  UNL1       -0.0374
      4 C          17.9680   32.1330   83.6260 C.3     1  UNL1        0.0119
      5 N          18.5080   32.8100   84.8080 N.am    1  UNL1       -0.3108
      6 C          19.7540   32.5270   85.2360 C.2     1  UNL1        0.2544
      7 O          20.4320   31.7100   84.6410 O.2     1  UNL1       -0.2694
      8 C          20.2960   33.2070   86.4230 C.2     1  UNL1        0.1138
      9 C          19.7140   33.0090   87.6570 C.2     1  UNL1       -0.0320
     10 C          20.1530   33.7970   88.8090 C.ar    1  UNL1       -0.0200
     11 C          19.7120   35.1200   88.9660 C.ar    1  UNL1       -0.0093
     12 C          20.1300   35.8580   90.0540 C.ar    1  UNL1        0.1588
     13 C          20.9900   35.2890   90.9950 C.ar    1  UNL1        0.1582
     14 C          21.4280   33.9790   90.8410 C.ar    1  UNL1       -0.0160
     15 C          21.0120   33.2330   89.7610 C.ar    1  UNL1       -0.0509
     16 O          21.4000   36.0180   92.0640 O.3     1  UNL1       -0.5033
     17 O          19.7040   37.1400   90.2090 O.3     1  UNL1       -0.5033
     18 C          21.4290   34.0730   86.2980 C.1     1  UNL1        0.1044
     19 N          22.3280   34.7610   86.1980 N.1     1  UNL1       -0.1907
     20 C          14.3990   32.5930   86.4980 C.3     1  UNL1       -0.0374
     21 C          15.5360   33.5700   86.8050 C.3     1  UNL1        0.0119
     22 C          16.1430   33.5180   89.1640 C.2     1  UNL1        0.2544
     23 N          15.4010   34.0600   88.1790 N.am    1  UNL1       -0.3108
     24 O          16.9260   32.6200   88.9130 O.2     1  UNL1       -0.2694
     25 C          17.1050   34.0310   91.3790 C.2     1  UNL1       -0.0320
     26 C          16.0080   34.0110   90.5440 C.2     1  UNL1        0.1138
     27 C          16.4030   33.4490   93.6900 C.ar    1  UNL1       -0.0509
     28 C          16.9420   34.3810   92.7910 C.ar    1  UNL1       -0.0200
     29 C          17.3240   35.6500   93.2510 C.ar    1  UNL1       -0.0093
     30 C          17.1680   35.9730   94.5820 C.ar    1  UNL1        0.1588
     31 C          16.6320   35.0390   95.4700 C.ar    1  UNL1        0.1582
     32 C          16.2530   33.7810   95.0170 C.ar    1  UNL1       -0.0160
     33 O          16.4800   35.3600   96.7810 O.3     1  UNL1       -0.5033
     34 O          17.5390   37.2020   95.0320 O.3     1  UNL1       -0.5033
     35 C          14.7370   34.4690   91.0200 C.1     1  UNL1        0.1044
     36 N          13.7300   34.8330   91.3960 N.1     1  UNL1       -0.1907
     37 H          14.4504   30.6236   85.6642 H       1  UNL1        0.0266
     38 H          14.5318   31.9035   84.4774 H       1  UNL1        0.0266
     39 H          16.7009   30.7516   86.1551 H       1  UNL1        0.0266
     40 H          16.7990   32.4470   85.7458 H       1  UNL1        0.0266
     41 H          16.0761   31.1666   83.3665 H       1  UNL1        0.0280
     42 H          17.3055   30.1473   84.0735 H       1  UNL1        0.0280
     43 H          17.5382   32.8568   82.9655 H       1  UNL1        0.0462
     44 H          18.7556   31.6133   83.1214 H       1  UNL1        0.0462
     45 H          17.9605   33.4716   85.2894 H       1  UNL1        0.1490
     46 H          18.9682   32.3045   87.7683 H       1  UNL1        0.0638
     47 H          19.0767   35.5397   88.2694 H       1  UNL1        0.0661
     48 H          22.0665   33.5644   91.5377 H       1  UNL1        0.0655
     49 H          21.3331   32.2582   89.6529 H       1  UNL1        0.0625
     50 H          21.1057   36.9013   92.1694 H       1  UNL1        0.2923
     51 H          19.1268   37.5215   89.5772 H       1  UNL1        0.2923
     52 H          14.1245   32.0728   87.3919 H       1  UNL1        0.0280
     53 H          13.5540   33.1343   86.1267 H       1  UNL1        0.0280
     54 H          15.4901   34.3955   86.1258 H       1  UNL1        0.0462
     55 H          16.4755   33.0698   86.6953 H       1  UNL1        0.0462
     56 H          14.7677   34.7858   88.3826 H       1  UNL1        0.1490
     57 H          18.0401   33.7994   91.0089 H       1  UNL1        0.0638
     58 H          16.1190   32.5146   93.3564 H       1  UNL1        0.0625
     59 H          17.7209   36.3402   92.5944 H       1  UNL1        0.0661
     60 H          15.8579   33.0938   95.6778 H       1  UNL1        0.0655
     61 H          16.7349   36.2076   97.0884 H       1  UNL1        0.2923
     62 H          17.8989   37.8298   94.4368 H       1  UNL1        0.2923
@<TRIPOS>BOND
     1     1     2    1
     2     1    20    1
     3     1    37    1
     4     1    38    1
     5     2     3    1
     6     2    39    1
     7     2    40    1
     8     3     4    1
     9     3    41    1
    10     3    42    1
    11     4     5    1
    12     4    43    1
    13     4    44    1
    14     5     6   am
    15     5    45    1
    16     6     7    2
    17     6     8    1
    18     8    18    1
    19     8     9    2
    20     9    10    1
    21     9    46    1
    22    10    11   ar
    23    10    15   ar
    24    11    12   ar
    25    11    47    1
    26    12    17    1
    27    12    13   ar
    28    13    14   ar
    29    13    16    1
    30    14    15   ar
    31    14    48    1
    32    15    49    1
    33    16    50    1
    34    17    51    1
    35    18    19    3
    36    20    21    1
    37    20    52    1
    38    20    53    1
    39    21    23    1
    40    21    54    1
    41    21    55    1
    42    22    23   am
    43    22    24    2
    44    22    26    1
    45    23    56    1
    46    25    26    2
    47    25    28    1
    48    25    57    1
    49    26    35    1
    50    27    28   ar
    51    27    32   ar
    52    27    58    1
    53    28    29   ar
    54    29    30   ar
    55    29    59    1
    56    30    34    1
    57    30    31   ar
    58    31    32   ar
    59    31    33    1
    60    32    60    1
    61    33    61    1
    62    34    62    1
    63    35    36    3
