@<TRIPOS>MOLECULE
*****
 58 62 0 0 0
SMALL
GASTEIGER

@<TRIPOS>ATOM
      1 C          16.1430   34.1120   92.1850 C.ar    1  UNL1        0.1635
      2 C          15.6330   33.7970   90.9450 C.ar    1  UNL1        0.0098
      3 C          16.4460   33.9290   89.8120 C.ar    1  UNL1        0.0785
      4 C          17.7800   34.3830   89.9600 C.ar    1  UNL1        0.0301
      5 C          18.5770   34.5070   88.7940 C.ar    1  UNL1        0.0840
      6 N          18.0310   34.1890   87.6230 N.ar    1  UNL1       -0.2347
      7 C          16.7790   33.7690   87.5370 C.ar    1  UNL1        0.1173
      8 C          18.2730   34.6960   91.2310 C.ar    1  UNL1       -0.0051
      9 N          15.9970   33.6360   88.5820 N.ar    1  UNL1       -0.2353
     10 C          17.4630   34.5660   92.3230 C.ar    1  UNL1        0.1626
     11 C          19.9730   34.9740   88.8760 C.ar    1  UNL1        0.0261
     12 C          20.4550   35.9610   89.6790 C.ar    1  UNL1        0.0120
     13 N          21.7910   36.1080   89.4750 N.ar    1  UNL1       -0.3599
     14 C          22.2330   35.2120   88.5240 C.ar    1  UNL1        0.0499
     15 C          23.4800   34.9550   87.9650 C.ar    1  UNL1       -0.0011
     16 C          23.6180   33.9600   87.0190 C.ar    1  UNL1        0.1436
     17 F          24.8320   33.7110   86.4820 F       1  UNL1       -0.2039
     18 C          22.5170   33.2180   86.6070 C.ar    1  UNL1        0.0768
     19 CL         22.7100   31.9780   85.4080 Cl      1  UNL1       -0.0806
     20 C          21.2720   33.4630   87.1470 C.ar    1  UNL1       -0.0308
     21 C          21.1220   34.4590   88.1100 C.ar    1  UNL1        0.0104
     22 C          15.5920   32.8540   94.1250 C.3     1  UNL1        0.0790
     23 O          15.3570   33.9860   93.2860 O.3     1  UNL1       -0.4914
     24 O          17.9420   34.8760   93.5570 O.3     1  UNL1       -0.4881
     25 C          17.5860   36.1540   94.0880 C.3     1  UNL1        0.0946
     26 C          17.2760   36.0170   95.5810 C.3     1  UNL1        0.0217
     27 C          15.7900   36.2890   95.8200 C.3     1  UNL1       -0.0286
     28 N          15.6080   37.6850   96.2360 N.4     1  UNL1        0.2386
     29 C          16.5130   38.0270   97.3430 C.3     1  UNL1       -0.0078
     30 C          16.3330   39.5040   97.7040 C.3     1  UNL1        0.0878
     31 O          14.9620   39.7470   98.0320 O.3     1  UNL1       -0.3693
     32 C          14.0530   39.4250   96.9750 C.3     1  UNL1        0.0878
     33 C          14.2090   37.9480   96.6070 C.3     1  UNL1       -0.0078
     34 H          14.6599   33.4664   90.8514 H       1  UNL1        0.0677
     35 H          16.4006   33.5355   86.6057 H       1  UNL1        0.1047
     36 H          19.2451   35.0239   91.3432 H       1  UNL1        0.0662
     37 H          19.8913   36.5146   90.3429 H       1  UNL1        0.0814
     38 H          22.3621   36.7613   89.9401 H       1  UNL1        0.1654
     39 H          24.3011   35.5076   88.2572 H       1  UNL1        0.0667
     40 H          20.4556   32.9116   86.8395 H       1  UNL1        0.0640
     41 H          14.9109   32.8740   94.9500 H       1  UNL1        0.0660
     42 H          16.5969   32.8840   94.4913 H       1  UNL1        0.0660
     43 H          15.4442   31.9561   93.5622 H       1  UNL1        0.0660
     44 H          16.7222   36.5248   93.5768 H       1  UNL1        0.0698
     45 H          18.3996   36.8358   93.9534 H       1  UNL1        0.0698
     46 H          17.8611   36.7226   96.1330 H       1  UNL1        0.0350
     47 H          17.5138   35.0254   95.9052 H       1  UNL1        0.0350
     48 H          15.4274   35.6380   96.5879 H       1  UNL1        0.0815
     49 H          15.2456   36.1127   94.9159 H       1  UNL1        0.0815
     50 H          15.8410   38.2796   95.4406 H       1  UNL1        0.2035
     51 H          17.5255   37.8527   97.0441 H       1  UNL1        0.0837
     52 H          16.2854   37.4192   98.1937 H       1  UNL1        0.0837
     53 H          16.6143   40.1126   96.8701 H       1  UNL1        0.0613
     54 H          16.9506   39.7455   98.5437 H       1  UNL1        0.0613
     55 H          14.2694   40.0312   96.1203 H       1  UNL1        0.0613
     56 H          13.0493   39.6105   97.2961 H       1  UNL1        0.0613
     57 H          13.9413   37.3403   97.4460 H       1  UNL1        0.0837
     58 H          13.5692   37.7145   95.7818 H       1  UNL1        0.0837
@<TRIPOS>BOND
     1     1     2   ar
     2     1    10   ar
     3     1    23    1
     4     2     3   ar
     5     2    34    1
     6     3     9   ar
     7     3     4   ar
     8     4     5   ar
     9     4     8   ar
    10     5     6   ar
    11     5    11    1
    12     6     7   ar
    13     7     9   ar
    14     7    35    1
    15     8    10   ar
    16     8    36    1
    17    10    24    1
    18    11    21   ar
    19    11    12   ar
    20    12    13   ar
    21    12    37    1
    22    13    14   ar
    23    13    38    1
    24    14    15   ar
    25    14    21   ar
    26    15    16   ar
    27    15    39    1
    28    16    17    1
    29    16    18   ar
    30    18    19    1
    31    18    20   ar
    32    20    21   ar
    33    20    40    1
    34    22    23    1
    35    22    41    1
    36    22    42    1
    37    22    43    1
    38    24    25    1
    39    25    26    1
    40    25    44    1
    41    25    45    1
    42    26    27    1
    43    26    46    1
    44    26    47    1
    45    27    28    1
    46    27    48    1
    47    27    49    1
    48    28    33    1
    49    28    29    1
    50    28    50    1
    51    29    30    1
    52    29    51    1
    53    29    52    1
    54    30    31    1
    55    30    53    1
    56    30    54    1
    57    31    32    1
    58    32    33    1
    59    32    55    1
    60    32    56    1
    61    33    57    1
    62    33    58    1
