@<TRIPOS>MOLECULE
*****
 48 51 0 0 0
SMALL
GASTEIGER

@<TRIPOS>ATOM
      1 N          18.3430   34.3460   90.1550 N.am    1  UNL1       -0.2443
      2 C          18.0820   32.9810   89.6960 C.3     1  UNL1        0.1212
      3 N          19.2940   32.4050   89.1010 N.pl3   1  UNL1       -0.3212
      4 C          20.0560   33.1890   88.2420 C.ar    1  UNL1        0.0409
      5 C          20.8210   32.6310   87.2320 C.ar    1  UNL1       -0.0401
      6 C          21.5740   33.4500   86.4130 C.ar    1  UNL1       -0.0600
      7 C          21.5690   34.8240   86.5930 C.ar    1  UNL1       -0.0609
      8 C          20.8080   35.3960   87.5920 C.ar    1  UNL1       -0.0478
      9 C          20.0410   34.5830   88.4230 C.ar    1  UNL1        0.0581
     10 C          19.2140   35.1440   89.5050 C.2     1  UNL1        0.2543
     11 O          19.3130   36.3170   89.8090 O.2     1  UNL1       -0.2695
     12 C          16.3620   35.7850   93.5290 C.ar    1  UNL1        0.1206
     13 C          15.6830   35.6630   92.3260 C.ar    1  UNL1       -0.0182
     14 C          16.3380   35.1870   91.2080 C.ar    1  UNL1       -0.0367
     15 C          17.6780   34.8300   91.2880 C.ar    1  UNL1        0.0389
     16 C          18.3560   34.9460   92.4940 C.ar    1  UNL1       -0.0367
     17 C          17.7000   35.4280   93.6100 C.ar    1  UNL1       -0.0182
     18 O          15.7160   36.2550   94.6290 O.3     1  UNL1       -0.4922
     19 C          15.4780   34.7830   96.5320 C.3     1  UNL1       -0.0307
     20 C          16.2780   35.9250   95.9010 C.3     1  UNL1        0.0868
     21 C          16.9820   33.0020   88.6670 C.ar    1  UNL1       -0.0053
     22 C          17.2540   32.6410   87.3600 C.ar    1  UNL1       -0.0515
     23 C          16.2480   32.6570   86.4120 C.ar    1  UNL1       -0.0162
     24 C          14.9640   33.0380   86.7700 C.ar    1  UNL1        0.1582
     25 C          14.6910   33.4020   88.0860 C.ar    1  UNL1        0.1586
     26 C          15.7030   33.3770   89.0320 C.ar    1  UNL1       -0.0100
     27 O          13.9740   33.0560   85.8390 O.3     1  UNL1       -0.5033
     28 O          13.4330   33.7760   88.4420 O.3     1  UNL1       -0.5033
     29 H          17.7864   32.3827   90.5324 H       1  UNL1        0.0765
     30 H          19.5624   31.4804   89.3064 H       1  UNL1        0.1482
     31 H          20.8287   31.6086   87.0917 H       1  UNL1        0.0636
     32 H          22.1453   33.0349   85.6605 H       1  UNL1        0.0618
     33 H          22.1384   35.4237   85.9756 H       1  UNL1        0.0618
     34 H          20.8072   36.4197   87.7225 H       1  UNL1        0.0626
     35 H          14.6874   35.9282   92.2665 H       1  UNL1        0.0655
     36 H          15.8323   35.0964   90.3130 H       1  UNL1        0.0637
     37 H          19.3491   34.6724   92.5566 H       1  UNL1        0.0637
     38 H          18.2057   35.5226   94.5046 H       1  UNL1        0.0655
     39 H          15.8990   34.5362   97.4842 H       1  UNL1        0.0262
     40 H          15.5151   33.9258   95.8927 H       1  UNL1        0.0262
     41 H          14.4606   35.0886   96.6602 H       1  UNL1        0.0262
     42 H          16.2409   36.7821   96.5404 H       1  UNL1        0.0694
     43 H          17.2953   35.6192   95.7727 H       1  UNL1        0.0694
     44 H          18.2099   32.3591   87.0919 H       1  UNL1        0.0623
     45 H          16.4528   32.3853   85.4377 H       1  UNL1        0.0655
     46 H          15.5015   33.6386   90.0098 H       1  UNL1        0.0659
     47 H          14.1589   32.8109   84.9537 H       1  UNL1        0.2923
     48 H          12.7500   33.7923   87.8008 H       1  UNL1        0.2923
@<TRIPOS>BOND
     1     1    10   am
     2     1     2    1
     3     1    15    1
     4     2    21    1
     5     2     3    1
     6     2    29    1
     7     3     4    1
     8     3    30    1
     9     4     5   ar
    10     4     9   ar
    11     5     6   ar
    12     5    31    1
    13     6     7   ar
    14     6    32    1
    15     7     8   ar
    16     7    33    1
    17     8     9   ar
    18     8    34    1
    19     9    10    1
    20    10    11    2
    21    12    13   ar
    22    12    17   ar
    23    12    18    1
    24    13    14   ar
    25    13    35    1
    26    14    15   ar
    27    14    36    1
    28    15    16   ar
    29    16    17   ar
    30    16    37    1
    31    17    38    1
    32    18    20    1
    33    19    20    1
    34    19    39    1
    35    19    40    1
    36    19    41    1
    37    20    42    1
    38    20    43    1
    39    21    22   ar
    40    21    26   ar
    41    22    23   ar
    42    22    44    1
    43    23    24   ar
    44    23    45    1
    45    24    27    1
    46    24    25   ar
    47    25    28    1
    48    25    26   ar
    49    26    46    1
    50    27    47    1
    51    28    48    1
