@<TRIPOS>MOLECULE
*****
 55 58 0 0 0
SMALL
GASTEIGER

@<TRIPOS>ATOM
      1 C          15.9680   32.9310   86.8900 C.ar    1  UNL1        0.1636
      2 C          14.7480   33.3810   87.3420 C.ar    1  UNL1        0.0098
      3 C          14.5920   33.7120   88.6940 C.ar    1  UNL1        0.0797
      4 C          15.6930   33.5780   89.5750 C.ar    1  UNL1        0.0441
      5 C          15.5060   33.9190   90.9360 C.ar    1  UNL1        0.1340
      6 N          16.5400   33.8090   91.8430 N.pl3   1  UNL1       -0.2988
      7 N          14.3090   34.3470   91.3160 N.ar    1  UNL1       -0.2200
      8 C          13.3090   34.4570   90.4570 C.ar    1  UNL1        0.1187
      9 C          16.9230   33.1180   89.0900 C.ar    1  UNL1       -0.0038
     10 N          13.4250   34.1550   89.1850 N.ar    1  UNL1       -0.2352
     11 C          17.0520   32.7950   87.7690 C.ar    1  UNL1        0.1630
     12 C          16.3080   34.0530   93.2010 C.ar    1  UNL1        0.0339
     13 C          15.6870   33.0890   93.9840 C.ar    1  UNL1       -0.0377
     14 C          15.4590   33.3300   95.3250 C.ar    1  UNL1       -0.0232
     15 C          15.8490   34.5330   95.8890 C.ar    1  UNL1        0.1417
     16 F          15.6250   34.7680   97.2010 F       1  UNL1       -0.2040
     17 C          16.4690   35.4960   95.1100 C.ar    1  UNL1        0.0778
     18 CL         16.9570   37.0040   95.8200 Cl      1  UNL1       -0.0805
     19 C          16.7040   35.2570   93.7690 C.ar    1  UNL1       -0.0194
     20 C          15.4060   31.4680   85.1030 C.3     1  UNL1        0.0790
     21 O          16.1220   32.6090   85.5790 O.3     1  UNL1       -0.4914
     22 O          18.2460   32.3430   87.3000 O.3     1  UNL1       -0.4830
     23 C          19.3850   32.5270   88.1420 C.3     1  UNL1        0.1293
     24 C          20.1460   33.7800   87.7030 C.3     1  UNL1        0.0031
     25 N          20.3760   34.6460   88.8670 N.4     1  UNL1        0.2376
     26 C          20.6240   33.8150   90.0520 C.3     1  UNL1       -0.0318
     27 C          20.9440   34.7110   91.2510 C.3     1  UNL1       -0.0123
     28 C          19.7570   35.6420   91.5170 C.3     1  UNL1       -0.0434
     29 C          19.4610   36.4490   90.2500 C.3     1  UNL1       -0.0123
     30 C          19.1960   35.4900   89.0880 C.3     1  UNL1       -0.0318
     31 H          13.9540   33.4738   86.6893 H       1  UNL1        0.0677
     32 H          17.4409   33.5589   91.5346 H       1  UNL1        0.1536
     33 H          12.3972   34.7953   90.8024 H       1  UNL1        0.1048
     34 H          17.7288   33.0233   89.7277 H       1  UNL1        0.0663
     35 H          15.3958   32.1924   93.5641 H       1  UNL1        0.0637
     36 H          14.9978   32.6131   95.9067 H       1  UNL1        0.0647
     37 H          17.1728   35.9719   93.1909 H       1  UNL1        0.0652
     38 H          15.6131   31.3253   84.0630 H       1  UNL1        0.0660
     39 H          14.3562   31.6232   85.2395 H       1  UNL1        0.0660
     40 H          15.7124   30.6009   85.6500 H       1  UNL1        0.0660
     41 H          20.0270   31.6744   88.0651 H       1  UNL1        0.0751
     42 H          19.0643   32.6413   89.1564 H       1  UNL1        0.0751
     43 H          19.5703   34.3094   86.9728 H       1  UNL1        0.0848
     44 H          21.0862   33.4959   87.2784 H       1  UNL1        0.0848
     45 H          21.1873   35.2406   88.6978 H       1  UNL1        0.2034
     46 H          21.4519   33.1640   89.8632 H       1  UNL1        0.0814
     47 H          19.7519   33.2333   90.2664 H       1  UNL1        0.0814
     48 H          21.8155   35.2944   91.0390 H       1  UNL1        0.0317
     49 H          21.1250   34.1047   92.1139 H       1  UNL1        0.0317
     50 H          19.9969   36.3087   92.3188 H       1  UNL1        0.0269
     51 H          18.8978   35.0636   91.7855 H       1  UNL1        0.0269
     52 H          20.3015   37.0688   90.0169 H       1  UNL1        0.0317
     53 H          18.5998   37.0634   90.4103 H       1  UNL1        0.0317
     54 H          18.3546   34.8716   89.3215 H       1  UNL1        0.0814
     55 H          18.9914   36.0537   88.2018 H       1  UNL1        0.0814
@<TRIPOS>BOND
     1     1    21    1
     2     1     2   ar
     3     1    11   ar
     4     2     3   ar
     5     2    31    1
     6     3    10   ar
     7     3     4   ar
     8     4     9   ar
     9     4     5   ar
    10     5     7   ar
    11     5     6    1
    12     6    12    1
    13     6    32    1
    14     7     8   ar
    15     8    10   ar
    16     8    33    1
    17     9    11   ar
    18     9    34    1
    19    11    22    1
    20    12    19   ar
    21    12    13   ar
    22    13    14   ar
    23    13    35    1
    24    14    15   ar
    25    14    36    1
    26    15    17   ar
    27    15    16    1
    28    17    19   ar
    29    17    18    1
    30    19    37    1
    31    20    21    1
    32    20    38    1
    33    20    39    1
    34    20    40    1
    35    22    23    1
    36    23    24    1
    37    23    41    1
    38    23    42    1
    39    24    25    1
    40    24    43    1
    41    24    44    1
    42    25    30    1
    43    25    26    1
    44    25    45    1
    45    26    27    1
    46    26    46    1
    47    26    47    1
    48    27    28    1
    49    27    48    1
    50    27    49    1
    51    28    29    1
    52    28    50    1
    53    28    51    1
    54    29    30    1
    55    29    52    1
    56    29    53    1
    57    30    54    1
    58    30    55    1
