@<TRIPOS>MOLECULE
*****
 47 50 0 0 0
SMALL
GASTEIGER

@<TRIPOS>ATOM
      1 N          17.1120   34.1240   91.4290 N.am    1  UNL1       -0.3081
      2 C          15.8270   34.1030   91.8370 C.2     1  UNL1        0.2238
      3 O          14.9750   34.6670   91.1840 O.2     1  UNL1       -0.2749
      4 C          18.7230   35.6810   90.4480 C.3     1  UNL1       -0.0425
      5 C          17.4780   34.8280   90.1970 C.3     1  UNL1        0.0456
      6 C          17.7670   33.8230   89.1110 C.ar    1  UNL1       -0.0269
      7 C          18.9860   33.1470   89.1090 C.ar    1  UNL1       -0.0562
      8 C          19.2790   32.2340   88.1430 C.ar    1  UNL1       -0.0537
      9 C          18.3400   31.9660   87.1320 C.ar    1  UNL1       -0.0179
     10 C          18.6080   31.0310   86.1180 C.ar    1  UNL1       -0.0540
     11 C          17.6740   30.7970   85.1550 C.ar    1  UNL1       -0.0612
     12 C          16.4580   31.4780   85.1540 C.ar    1  UNL1       -0.0612
     13 C          16.1630   32.3860   86.1240 C.ar    1  UNL1       -0.0540
     14 C          17.1010   32.6540   87.1350 C.ar    1  UNL1       -0.0176
     15 C          16.8340   33.5900   88.1490 C.ar    1  UNL1       -0.0491
     16 C          15.4510   33.3790   93.1040 C.3     1  UNL1        0.0777
     17 S          16.8070   33.5010   94.2960 S.3     1  UNL1       -0.0754
     18 C          16.0940   34.6180   95.4570 C.ar    1  UNL1        0.2067
     19 N          15.2460   34.3120   96.4110 N.ar    1  UNL1       -0.1208
     20 N          14.9280   35.3650   97.0770 N.ar    1  UNL1       -0.1264
     21 C          15.5510   36.4130   96.5820 C.ar    1  UNL1        0.1858
     22 N          16.3170   35.9650   95.5280 N.ar    1  UNL1       -0.2345
     23 C          15.4490   37.7990   97.0630 C.ar    1  UNL1        0.0577
     24 C          14.3450   38.6110   97.1320 C.ar    1  UNL1       -0.0439
     25 C          14.4930   39.8870   97.6290 C.ar    1  UNL1       -0.0540
     26 C          15.7240   40.3060   98.0220 C.ar    1  UNL1       -0.0236
     27 S          16.7300   38.8660   97.7000 S.2     1  UNL1       -0.0935
     28 N          17.1300   36.7110   94.7230 N.3     1  UNL1       -0.2390
     29 H          17.8043   33.6664   91.9587 H       1  UNL1        0.1493
     30 H          18.5173   36.3941   91.2188 H       1  UNL1        0.0251
     31 H          18.9903   36.1952   89.5485 H       1  UNL1        0.0251
     32 H          19.5321   35.0503   90.7522 H       1  UNL1        0.0251
     33 H          16.6692   35.4589   89.8926 H       1  UNL1        0.0545
     34 H          19.6765   33.3416   89.8509 H       1  UNL1        0.0621
     35 H          20.1857   31.7412   88.1528 H       1  UNL1        0.0624
     36 H          19.5071   30.5247   86.1031 H       1  UNL1        0.0624
     37 H          17.8696   30.1050   84.4148 H       1  UNL1        0.0618
     38 H          15.7712   31.2910   84.4068 H       1  UNL1        0.0618
     39 H          15.2544   32.8754   86.1169 H       1  UNL1        0.0624
     40 H          15.9355   34.0974   88.1636 H       1  UNL1        0.0627
     41 H          15.2621   32.3492   92.8833 H       1  UNL1        0.0475
     42 H          14.5706   33.8228   93.5197 H       1  UNL1        0.0475
     43 H          13.4222   38.2724   96.8178 H       1  UNL1        0.0630
     44 H          13.6788   40.5169   97.7019 H       1  UNL1        0.0623
     45 H          16.0054   41.2210   98.4075 H       1  UNL1        0.0693
     46 H          17.5693   36.1060   94.0292 H       1  UNL1        0.1434
     47 H          17.8509   37.1586   95.2890 H       1  UNL1        0.1434
@<TRIPOS>BOND
     1     1     5    1
     2     1     2   am
     3     1    29    1
     4     2     3    2
     5     2    16    1
     6     4     5    1
     7     4    30    1
     8     4    31    1
     9     4    32    1
    10     5     6    1
    11     5    33    1
    12     6    15   ar
    13     6     7   ar
    14     7     8   ar
    15     7    34    1
    16     8     9   ar
    17     8    35    1
    18     9    10   ar
    19     9    14   ar
    20    10    11   ar
    21    10    36    1
    22    11    12   ar
    23    11    37    1
    24    12    13   ar
    25    12    38    1
    26    13    14   ar
    27    13    39    1
    28    14    15   ar
    29    15    40    1
    30    16    17    1
    31    16    41    1
    32    16    42    1
    33    17    18    1
    34    18    22   ar
    35    18    19   ar
    36    19    20   ar
    37    20    21   ar
    38    21    22   ar
    39    21    23    1
    40    22    28    1
    41    23    24   ar
    42    23    27   ar
    43    24    25   ar
    44    24    43    1
    45    25    26   ar
    46    25    44    1
    47    26    27   ar
    48    26    45    1
    49    28    46    1
    50    28    47    1
