@<TRIPOS>MOLECULE
*****
 33 34 0 0 0
SMALL
GASTEIGER

@<TRIPOS>ATOM
      1 C          16.6710   35.6620   93.7260 C.2     1  UNL1       -0.0333
      2 C          16.4450   34.9400   94.8810 C.2     1  UNL1        0.0994
      3 C          15.3120   34.7690   91.8480 C.ar    1  UNL1       -0.0509
      4 C          15.2220   34.1530   90.6210 C.ar    1  UNL1       -0.0160
      5 C          16.3730   33.7640   89.9470 C.ar    1  UNL1        0.1582
      6 C          17.6300   33.9960   90.5100 C.ar    1  UNL1        0.1588
      7 C          17.7320   34.6130   91.7400 C.ar    1  UNL1       -0.0093
      8 C          16.5700   35.0060   92.4220 C.ar    1  UNL1       -0.0200
      9 O          16.2780   33.1560   88.7370 O.3     1  UNL1       -0.5033
     10 O          18.7530   33.6120   89.8480 O.3     1  UNL1       -0.5033
     11 C          16.7360   35.5410   96.1910 C.2     1  UNL1        0.2034
     12 O          17.5730   35.0390   96.9180 O.2     1  UNL1       -0.2859
     13 C          16.0130   36.7530   96.6230 C.ar    1  UNL1        0.0266
     14 C          14.6190   36.7360   96.7280 C.ar    1  UNL1       -0.0472
     15 C          13.9460   37.8680   97.1320 C.ar    1  UNL1       -0.0159
     16 C          14.6480   39.0270   97.4340 C.ar    1  UNL1        0.1583
     17 O          13.9790   40.1410   97.8310 O.3     1  UNL1       -0.5033
     18 C          16.0380   39.0510   97.3320 C.ar    1  UNL1        0.1589
     19 C          16.7200   37.9180   96.9330 C.ar    1  UNL1       -0.0057
     20 O          16.7220   40.1880   97.6280 O.3     1  UNL1       -0.5033
     21 C          15.9290   33.6070   94.8010 C.1     1  UNL1        0.1030
     22 N          15.5180   32.5500   94.7390 N.1     1  UNL1       -0.1907
     23 H          16.9111   36.6641   93.7824 H       1  UNL1        0.0637
     24 H          14.4548   35.0565   92.3457 H       1  UNL1        0.0625
     25 H          14.2961   33.9792   90.1997 H       1  UNL1        0.0655
     26 H          18.6601   34.7850   92.1573 H       1  UNL1        0.0661
     27 H          15.4363   32.9988   88.3564 H       1  UNL1        0.2923
     28 H          18.6843   33.1930   89.0127 H       1  UNL1        0.2923
     29 H          14.0946   35.8761   96.5030 H       1  UNL1        0.0626
     30 H          12.9171   37.8545   97.2104 H       1  UNL1        0.0655
     31 H          13.0447   40.1267   97.9001 H       1  UNL1        0.2923
     32 H          17.7496   37.9318   96.8639 H       1  UNL1        0.0662
     33 H          16.2589   40.9563   97.8986 H       1  UNL1        0.2923
@<TRIPOS>BOND
     1     1     8    1
     2     1     2    2
     3     1    23    1
     4     2    21    1
     5     2    11    1
     6     3     4   ar
     7     3     8   ar
     8     3    24    1
     9     4     5   ar
    10     4    25    1
    11     5     9    1
    12     5     6   ar
    13     6    10    1
    14     6     7   ar
    15     7     8   ar
    16     7    26    1
    17     9    27    1
    18    10    28    1
    19    11    13    1
    20    11    12    2
    21    13    14   ar
    22    13    19   ar
    23    14    15   ar
    24    14    29    1
    25    15    16   ar
    26    15    30    1
    27    16    18   ar
    28    16    17    1
    29    17    31    1
    30    18    19   ar
    31    18    20    1
    32    19    32    1
    33    20    33    1
    34    21    22    3
