@<TRIPOS>MOLECULE
*****
 43 46 0 0 0
SMALL
GASTEIGER

@<TRIPOS>ATOM
      1 C          17.0890   33.0690   87.3300 C.ar    1  UNL1        0.0017
      2 C          16.0140   32.9880   86.5140 C.ar    1  UNL1       -0.0139
      3 S          14.6550   33.4580   87.5660 S.2     1  UNL1       -0.0763
      4 C          15.5510   33.7510   89.0680 C.ar    1  UNL1        0.1149
      5 N          15.2210   34.1260   90.2890 N.ar    1  UNL1       -0.2145
      6 C          16.1530   34.2640   91.2220 C.ar    1  UNL1        0.1914
      7 N          17.4320   34.0220   90.9590 N.ar    1  UNL1       -0.2066
      8 C          17.8400   33.6380   89.7610 C.ar    1  UNL1        0.1294
      9 C          16.8880   33.4770   88.7180 C.ar    1  UNL1        0.0549
     10 C          20.9810   32.1550   85.8860 C.ar    1  UNL1       -0.0617
     11 C          20.1610   31.1400   86.3450 C.ar    1  UNL1       -0.0612
     12 C          18.8970   31.4310   86.8160 C.ar    1  UNL1       -0.0540
     13 C          18.4470   32.7510   86.8270 C.ar    1  UNL1       -0.0166
     14 C          19.2750   33.7680   86.3560 C.ar    1  UNL1       -0.0540
     15 C          20.5400   33.4670   85.8950 C.ar    1  UNL1       -0.0612
     16 N          19.1810   33.3940   89.5260 N.pl3   1  UNL1       -0.3425
     17 S          15.6860   34.7720   92.8430 S.3     1  UNL1       -0.0766
     18 C          17.2800   35.3670   93.4580 C.3     1  UNL1        0.0776
     19 C          17.1780   35.6420   94.9370 C.2     1  UNL1        0.2237
     20 N          17.3800   36.8900   95.4060 N.am    1  UNL1       -0.3075
     21 O          16.9130   34.7420   95.7040 O.2     1  UNL1       -0.2749
     22 C          17.2800   37.1580   96.8430 C.3     1  UNL1        0.0698
     23 C          16.1730   38.1500   97.0930 C.ar    1  UNL1        0.1218
     24 C          15.4330   38.2360   98.2120 C.ar    1  UNL1       -0.0192
     25 C          14.5200   39.2980   98.0190 C.ar    1  UNL1       -0.0236
     26 C          14.7570   39.7980   96.7930 C.ar    1  UNL1        0.0921
     27 O          15.7640   39.1020   96.2390 O.2     1  UNL1       -0.4662
     28 H          15.9870   32.7181   85.5183 H       1  UNL1        0.0700
     29 H          21.9259   31.9331   85.5353 H       1  UNL1        0.0618
     30 H          20.4950   30.1636   86.3352 H       1  UNL1        0.0618
     31 H          18.2860   30.6735   87.1594 H       1  UNL1        0.0624
     32 H          18.9424   34.7449   86.3520 H       1  UNL1        0.0624
     33 H          21.1581   34.2209   85.5565 H       1  UNL1        0.0618
     34 H          19.8365   33.5070   90.2518 H       1  UNL1        0.1437
     35 H          19.4800   33.1073   88.6329 H       1  UNL1        0.1437
     36 H          17.5462   36.2677   92.9454 H       1  UNL1        0.0475
     37 H          18.0291   34.6229   93.2847 H       1  UNL1        0.0475
     38 H          17.5947   37.6212   94.7828 H       1  UNL1        0.1492
     39 H          18.2063   37.5607   97.1961 H       1  UNL1        0.0542
     40 H          17.0665   36.2469   97.3618 H       1  UNL1        0.0542
     41 H          15.5156   37.6409   99.0511 H       1  UNL1        0.0652
     42 H          13.8082   39.6266   98.6901 H       1  UNL1        0.0649
     43 H          14.2514   40.5826   96.3528 H       1  UNL1        0.1029
@<TRIPOS>BOND
     1     1     2   ar
     2     1    13    1
     3     1     9   ar
     4     2     3   ar
     5     2    28    1
     6     3     4   ar
     7     4     9   ar
     8     4     5   ar
     9     5     6   ar
    10     6     7   ar
    11     6    17    1
    12     7     8   ar
    13     8     9   ar
    14     8    16    1
    15    10    15   ar
    16    10    11   ar
    17    10    29    1
    18    11    12   ar
    19    11    30    1
    20    12    13   ar
    21    12    31    1
    22    13    14   ar
    23    14    15   ar
    24    14    32    1
    25    15    33    1
    26    16    34    1
    27    16    35    1
    28    17    18    1
    29    18    19    1
    30    18    36    1
    31    18    37    1
    32    19    20   am
    33    19    21    2
    34    20    22    1
    35    20    38    1
    36    22    23    1
    37    22    39    1
    38    22    40    1
    39    23    27   ar
    40    23    24   ar
    41    24    25   ar
    42    24    41    1
    43    25    26   ar
    44    25    42    1
    45    26    27   ar
    46    26    43    1
