@<TRIPOS>MOLECULE
*****
 47 49 0 0 0
SMALL
GASTEIGER

@<TRIPOS>ATOM
      1 C          17.1520   33.0470   88.4570 C.ar    1  UNL1        0.1792
      2 N          15.9830   33.2090   89.0330 N.ar    1  UNL1       -0.1269
      3 N          16.1150   33.9010   90.1070 N.ar    1  UNL1       -0.1208
      4 C          17.3760   34.2310   90.2790 C.ar    1  UNL1        0.2067
      5 N          18.0790   33.6980   89.2380 N.ar    1  UNL1       -0.2349
      6 C          18.1940   30.1650   83.5870 C.3     1  UNL1       -0.0397
      7 C          17.9220   30.9200   84.8620 C.ar    1  UNL1       -0.0504
      8 C          18.8750   30.9460   85.8660 C.ar    1  UNL1       -0.0582
      9 C          18.6300   31.6360   87.0350 C.ar    1  UNL1       -0.0508
     10 C          17.4190   32.3070   87.2060 C.ar    1  UNL1        0.0206
     11 C          16.4600   32.2730   86.1930 C.ar    1  UNL1       -0.0508
     12 C          16.7190   31.5840   85.0260 C.ar    1  UNL1       -0.0582
     13 N          19.4240   33.7890   89.0170 N.3     1  UNL1       -0.2390
     14 S          18.0350   35.1790   91.6100 S.3     1  UNL1       -0.0754
     15 C          16.5050   35.6330   92.4630 C.3     1  UNL1        0.0777
     16 C          16.7730   35.7690   93.9390 C.2     1  UNL1        0.2238
     17 N          15.7600   36.0330   94.7870 N.am    1  UNL1       -0.3080
     18 O          17.9020   35.6420   94.3640 O.2     1  UNL1       -0.2749
     19 C          16.0200   36.1660   96.2220 C.3     1  UNL1        0.0469
     20 C          15.3040   35.0440   96.9760 C.3     1  UNL1       -0.0424
     21 C          15.5120   37.5000   96.7040 C.ar    1  UNL1       -0.0092
     22 C          14.2290   37.9070   96.3880 C.ar    1  UNL1       -0.0554
     23 C          13.7630   39.1300   96.8310 C.ar    1  UNL1       -0.0614
     24 C          14.5810   39.9510   97.5850 C.ar    1  UNL1       -0.0604
     25 C          15.8630   39.5430   97.9060 C.ar    1  UNL1       -0.0431
     26 C          16.3290   38.3180   97.4630 C.ar    1  UNL1        0.0459
     27 CL         17.9410   37.8080   97.8610 Cl      1  UNL1       -0.0832
     28 H          17.3524   30.2554   82.9325 H       1  UNL1        0.0278
     29 H          18.3611   29.1325   83.8126 H       1  UNL1        0.0278
     30 H          19.0617   30.5709   83.1103 H       1  UNL1        0.0278
     31 H          19.7702   30.4483   85.7395 H       1  UNL1        0.0620
     32 H          19.3417   31.6558   87.7821 H       1  UNL1        0.0625
     33 H          15.5595   32.7618   86.3163 H       1  UNL1        0.0625
     34 H          16.0134   31.5638   84.2731 H       1  UNL1        0.0620
     35 H          19.6620   33.2914   88.1590 H       1  UNL1        0.1434
     36 H          19.9263   33.3735   89.8015 H       1  UNL1        0.1434
     37 H          15.7687   34.8733   92.3029 H       1  UNL1        0.0475
     38 H          16.1461   36.5649   92.0788 H       1  UNL1        0.0475
     39 H          14.8439   36.1366   94.4416 H       1  UNL1        0.1493
     40 H          17.0729   36.1005   96.4010 H       1  UNL1        0.0546
     41 H          14.2511   35.1094   96.7971 H       1  UNL1        0.0251
     42 H          15.4943   35.1409   98.0245 H       1  UNL1        0.0251
     43 H          15.6658   34.0969   96.6339 H       1  UNL1        0.0251
     44 H          13.6193   37.2972   95.8211 H       1  UNL1        0.0621
     45 H          12.8035   39.4309   96.5989 H       1  UNL1        0.0618
     46 H          14.2351   40.8680   97.9082 H       1  UNL1        0.0618
     47 H          16.4714   40.1518   98.4754 H       1  UNL1        0.0632
@<TRIPOS>BOND
     1     1    10    1
     2     1     2   ar
     3     1     5   ar
     4     2     3   ar
     5     3     4   ar
     6     4     5   ar
     7     4    14    1
     8     5    13    1
     9     6     7    1
    10     6    28    1
    11     6    29    1
    12     6    30    1
    13     7    12   ar
    14     7     8   ar
    15     8     9   ar
    16     8    31    1
    17     9    10   ar
    18     9    32    1
    19    10    11   ar
    20    11    12   ar
    21    11    33    1
    22    12    34    1
    23    13    35    1
    24    13    36    1
    25    14    15    1
    26    15    16    1
    27    15    37    1
    28    15    38    1
    29    16    18    2
    30    16    17   am
    31    17    19    1
    32    17    39    1
    33    19    21    1
    34    19    20    1
    35    19    40    1
    36    20    41    1
    37    20    42    1
    38    20    43    1
    39    21    22   ar
    40    21    26   ar
    41    22    23   ar
    42    22    44    1
    43    23    24   ar
    44    23    45    1
    45    24    25   ar
    46    24    46    1
    47    25    26   ar
    48    25    47    1
    49    26    27    1
