@<TRIPOS>MOLECULE
*****
 59 64 0 0 0
SMALL
GASTEIGER

@<TRIPOS>ATOM
      1 C          17.8200   34.5790   91.1820 C.ar    1  UNL1        0.0215
      2 C          17.2700   33.7400   90.2670 C.ar    1  UNL1       -0.0254
      3 C          17.8210   33.6500   88.9750 C.ar    1  UNL1        0.0439
      4 C          18.9420   34.4720   88.7380 C.ar    1  UNL1        0.0354
      5 C          19.5900   34.4900   87.5140 C.3     1  UNL1        0.0737
      6 C          19.1000   33.6610   86.5040 C.2     1  UNL1       -0.0453
      7 C          17.9990   32.8700   86.7790 C.2     1  UNL1       -0.0081
      8 N          17.4060   32.8740   87.9470 N.pl3   1  UNL1       -0.3201
      9 S          19.1700   35.3200   90.2800 S.2     1  UNL1       -0.0891
     10 C          17.5290   36.1260   94.5920 C.ar    1  UNL1       -0.0530
     11 C          17.9240   35.9030   93.2890 C.ar    1  UNL1       -0.0531
     12 C          17.4000   34.8240   92.5790 C.ar    1  UNL1       -0.0112
     13 C          16.4770   33.9750   93.1910 C.ar    1  UNL1       -0.0531
     14 C          16.0890   34.2090   94.4950 C.ar    1  UNL1       -0.0530
     15 C          16.6130   35.2820   95.1940 C.ar    1  UNL1       -0.0029
     16 C          16.1850   35.5310   96.6180 C.3     1  UNL1       -0.0058
     17 N          15.7080   36.9140   96.7510 N.4     1  UNL1        0.2417
     18 C          15.8820   37.4010   98.1270 C.3     1  UNL1       -0.0075
     19 C          15.4280   38.8610   98.2070 C.3     1  UNL1        0.0878
     20 O          14.0720   38.9580   97.7640 O.3     1  UNL1       -0.3693
     21 C          13.8680   38.4940   96.4270 C.3     1  UNL1        0.0878
     22 C          14.3050   37.0300   96.3300 C.3     1  UNL1       -0.0075
     23 N          20.6960   35.3100   87.2980 N.pl3   1  UNL1       -0.3329
     24 C          21.9850   34.8240   87.5430 C.ar    1  UNL1        0.0285
     25 C          22.5080   33.8070   86.7460 C.ar    1  UNL1       -0.0389
     26 C          23.7740   33.3180   86.9740 C.ar    1  UNL1       -0.0361
     27 C          24.5450   33.8400   88.0070 C.ar    1  UNL1        0.0466
     28 C          24.0230   34.8670   88.8140 C.ar    1  UNL1        0.0014
     29 C          25.0670   35.1870   89.7900 C.ar    1  UNL1       -0.0366
     30 C          26.1070   34.3780   89.5330 C.ar    1  UNL1        0.0027
     31 N          25.8150   33.5660   88.4710 N.ar    1  UNL1       -0.3606
     32 C          22.7390   35.3600   88.5700 C.ar    1  UNL1       -0.0317
     33 H          16.4483   33.1686   90.5188 H       1  UNL1        0.0648
     34 H          20.4414   35.1162   87.3471 H       1  UNL1        0.0598
     35 H          19.5481   33.6386   85.5746 H       1  UNL1        0.0606
     36 H          17.6314   32.2543   86.0369 H       1  UNL1        0.0779
     37 H          16.6263   32.2884   88.0825 H       1  UNL1        0.1516
     38 H          17.9176   36.9240   95.1186 H       1  UNL1        0.0622
     39 H          18.6064   36.5341   92.8407 H       1  UNL1        0.0624
     40 H          16.0856   33.1746   92.6703 H       1  UNL1        0.0624
     41 H          15.4066   33.5823   94.9495 H       1  UNL1        0.0622
     42 H          17.0170   35.3761   97.2728 H       1  UNL1        0.0867
     43 H          15.3968   34.8553   96.8770 H       1  UNL1        0.0867
     44 H          16.2720   37.4995   96.1349 H       1  UNL1        0.2038
     45 H          16.9134   37.3316   98.4032 H       1  UNL1        0.0837
     46 H          15.2956   36.8057   98.7953 H       1  UNL1        0.0837
     47 H          16.0525   39.4645   97.5819 H       1  UNL1        0.0613
     48 H          15.5009   39.2047   99.2177 H       1  UNL1        0.0613
     49 H          14.4479   39.0862   95.7503 H       1  UNL1        0.0613
     50 H          12.8323   38.5777   96.1716 H       1  UNL1        0.0613
     51 H          13.6896   36.4301   96.9675 H       1  UNL1        0.0837
     52 H          14.2043   36.6917   95.3199 H       1  UNL1        0.0837
     53 H          20.5704   36.2308   86.9732 H       1  UNL1        0.1470
     54 H          21.9403   33.4170   85.9775 H       1  UNL1        0.0637
     55 H          24.1511   32.5642   86.3786 H       1  UNL1        0.0639
     56 H          25.0133   35.8996   90.5345 H       1  UNL1        0.0638
     57 H          26.9951   34.3697   90.0585 H       1  UNL1        0.0807
     58 H          26.4208   32.8875   88.0943 H       1  UNL1        0.1653
     59 H          22.3555   36.1201   89.1532 H       1  UNL1        0.0642
@<TRIPOS>BOND
     1     1     2   ar
     2     1     9   ar
     3     1    12    1
     4     2     3   ar
     5     2    33    1
     6     3     8    1
     7     3     4   ar
     8     4     5    1
     9     4     9   ar
    10     5     6    1
    11     5    23    1
    12     5    34    1
    13     6     7    2
    14     6    35    1
    15     7     8    1
    16     7    36    1
    17     8    37    1
    18    10    11   ar
    19    10    15   ar
    20    10    38    1
    21    11    12   ar
    22    11    39    1
    23    12    13   ar
    24    13    14   ar
    25    13    40    1
    26    14    15   ar
    27    14    41    1
    28    15    16    1
    29    16    17    1
    30    16    42    1
    31    16    43    1
    32    17    22    1
    33    17    18    1
    34    17    44    1
    35    18    19    1
    36    18    45    1
    37    18    46    1
    38    19    20    1
    39    19    47    1
    40    19    48    1
    41    20    21    1
    42    21    22    1
    43    21    49    1
    44    21    50    1
    45    22    51    1
    46    22    52    1
    47    23    24    1
    48    23    53    1
    49    24    25   ar
    50    24    32   ar
    51    25    26   ar
    52    25    54    1
    53    26    27   ar
    54    26    55    1
    55    27    31   ar
    56    27    28   ar
    57    28    32   ar
    58    28    29   ar
    59    29    30   ar
    60    29    56    1
    61    30    31   ar
    62    30    57    1
    63    31    58    1
    64    32    59    1
