@<TRIPOS>MOLECULE
*****
 47 49 0 0 0
SMALL
GASTEIGER

@<TRIPOS>ATOM
      1 C          17.0630   33.3540   88.8150 C.ar    1  UNL1        0.1792
      2 N          16.0080   33.2930   89.5940 N.ar    1  UNL1       -0.1269
      3 N          16.1520   34.0910   90.5910 N.ar    1  UNL1       -0.1208
      4 C          17.3050   34.7160   90.5060 C.ar    1  UNL1        0.2067
      5 N          17.9260   34.2660   89.3760 N.ar    1  UNL1       -0.2349
      6 C          17.9180   30.3610   83.9750 C.3     1  UNL1       -0.0397
      7 C          17.6930   31.1440   85.2420 C.ar    1  UNL1       -0.0504
      8 C          16.5340   31.8810   85.4000 C.ar    1  UNL1       -0.0582
      9 C          16.3220   32.6000   86.5590 C.ar    1  UNL1       -0.0508
     10 C          17.2830   32.5850   87.5710 C.ar    1  UNL1        0.0206
     11 C          18.4530   31.8440   87.4030 C.ar    1  UNL1       -0.0508
     12 C          18.6490   31.1250   86.2420 C.ar    1  UNL1       -0.0582
     13 N          19.1500   34.6450   88.9000 N.3     1  UNL1       -0.2390
     14 S          17.9340   35.9070   91.6410 S.3     1  UNL1       -0.0754
     15 C          17.7220   35.0030   93.1950 C.3     1  UNL1        0.0777
     16 C          16.5620   35.5850   93.9610 C.2     1  UNL1        0.2238
     17 N          16.5570   35.5480   95.3080 N.am    1  UNL1       -0.3080
     18 O          15.6310   36.0820   93.3640 O.2     1  UNL1       -0.2749
     19 C          15.4270   36.1070   96.0520 C.3     1  UNL1        0.0469
     20 C          14.9800   35.1140   97.1250 C.3     1  UNL1       -0.0424
     21 C          15.8460   37.3980   96.7070 C.ar    1  UNL1       -0.0092
     22 C          17.0970   37.5060   97.2860 C.ar    1  UNL1       -0.0554
     23 C          17.4830   38.6910   97.8830 C.ar    1  UNL1       -0.0614
     24 C          16.6150   39.7670   97.9100 C.ar    1  UNL1       -0.0604
     25 C          15.3630   39.6590   97.3360 C.ar    1  UNL1       -0.0431
     26 C          14.9770   38.4750   96.7340 C.ar    1  UNL1        0.0459
     27 CL         13.4040   38.3390   96.0140 Cl      1  UNL1       -0.0832
     28 H          17.0812   30.4924   83.3212 H       1  UNL1        0.0278
     29 H          18.0263   29.3231   84.2116 H       1  UNL1        0.0278
     30 H          18.8063   30.7113   83.4922 H       1  UNL1        0.0278
     31 H          15.8257   31.8936   84.6496 H       1  UNL1        0.0620
     32 H          15.4551   33.1473   86.6770 H       1  UNL1        0.0625
     33 H          19.1700   31.8337   88.1452 H       1  UNL1        0.0625
     34 H          19.5112   30.5714   86.1191 H       1  UNL1        0.0620
     35 H          19.3506   34.1396   88.0370 H       1  UNL1        0.1434
     36 H          19.8660   34.4303   89.5940 H       1  UNL1        0.1434
     37 H          18.6137   35.0863   93.7805 H       1  UNL1        0.0475
     38 H          17.5286   33.9720   92.9841 H       1  UNL1        0.0475
     39 H          17.3136   35.1449   95.7920 H       1  UNL1        0.1493
     40 H          14.6161   36.2941   95.3795 H       1  UNL1        0.0546
     41 H          15.7908   34.9268   97.7976 H       1  UNL1        0.0251
     42 H          14.6827   34.1970   96.6607 H       1  UNL1        0.0251
     43 H          14.1536   35.5233   97.6677 H       1  UNL1        0.0251
     44 H          17.7428   36.7012   97.2723 H       1  UNL1        0.0621
     45 H          18.4195   38.7729   98.3089 H       1  UNL1        0.0618
     46 H          16.9024   40.6507   98.3589 H       1  UNL1        0.0618
     47 H          14.7153   40.4622   97.3564 H       1  UNL1        0.0632
@<TRIPOS>BOND
     1     1    10    1
     2     1     5   ar
     3     1     2   ar
     4     2     3   ar
     5     3     4   ar
     6     4     5   ar
     7     4    14    1
     8     5    13    1
     9     6     7    1
    10     6    28    1
    11     6    29    1
    12     6    30    1
    13     7     8   ar
    14     7    12   ar
    15     8     9   ar
    16     8    31    1
    17     9    10   ar
    18     9    32    1
    19    10    11   ar
    20    11    12   ar
    21    11    33    1
    22    12    34    1
    23    13    35    1
    24    13    36    1
    25    14    15    1
    26    15    16    1
    27    15    37    1
    28    15    38    1
    29    16    18    2
    30    16    17   am
    31    17    19    1
    32    17    39    1
    33    19    21    1
    34    19    20    1
    35    19    40    1
    36    20    41    1
    37    20    42    1
    38    20    43    1
    39    21    26   ar
    40    21    22   ar
    41    22    23   ar
    42    22    44    1
    43    23    24   ar
    44    23    45    1
    45    24    25   ar
    46    24    46    1
    47    25    26   ar
    48    25    47    1
    49    26    27    1
