@<TRIPOS>MOLECULE
*****
 48 49 0 0 0
SMALL
GASTEIGER

@<TRIPOS>ATOM
      1 C          20.7320   34.0740   88.4490 C.3     1  UNL1        0.0187
      2 C          15.3730   33.8680   90.6010 C.3     1  UNL1       -0.0397
      3 C          16.7720   33.9210   90.0420 C.ar    1  UNL1       -0.0499
      4 C          17.4240   35.1340   89.9260 C.ar    1  UNL1       -0.0556
      5 C          18.7070   35.1830   89.4140 C.ar    1  UNL1       -0.0464
      6 C          19.4170   36.5070   89.2880 C.3     1  UNL1       -0.0394
      7 C          19.3360   34.0190   89.0130 C.ar    1  UNL1       -0.0359
      8 C          18.6860   32.8050   89.1340 C.ar    1  UNL1       -0.0464
      9 C          19.3730   31.5360   88.7020 C.3     1  UNL1       -0.0394
     10 C          17.4020   32.7560   89.6460 C.ar    1  UNL1       -0.0556
     11 C          21.6390   34.8510   89.4060 C.3     1  UNL1        0.1393
     12 C          23.0130   34.8660   88.8770 C.1     1  UNL1        0.0815
     13 N          24.0720   34.8770   88.4690 N.1     1  UNL1       -0.1952
     14 C          21.6290   34.2020   90.7270 C.1     1  UNL1        0.0815
     15 N          21.6210   33.7010   91.7470 N.1     1  UNL1       -0.1952
     16 C          20.7060   34.7750   87.0890 C.3     1  UNL1        0.0012
     17 C          20.7210   33.7410   85.9920 C.2     1  UNL1        0.0736
     18 N          21.8150   33.5130   85.3270 N.2     1  UNL1       -0.1825
     19 N          23.0060   34.1510   85.7000 N.am    1  UNL1       -0.1907
     20 C          23.7840   34.7260   84.7610 C.2     1  UNL1        0.3165
     21 N          23.4170   34.6850   83.4650 N.am    1  UNL1       -0.3120
     22 O          24.8180   35.2790   85.0830 O.2     1  UNL1       -0.2513
     23 C          19.5010   32.9920   85.6740 C.ar    1  UNL1        0.0349
     24 C          18.1830   33.4130   85.7110 C.ar    1  UNL1       -0.0457
     25 C          17.2000   32.5160   85.3630 C.ar    1  UNL1       -0.0541
     26 C          17.5490   31.2550   84.9960 C.ar    1  UNL1       -0.0237
     27 S          19.3280   31.3000   85.1280 S.2     1  UNL1       -0.0954
     28 H          21.1077   33.0792   88.3303 H       1  UNL1        0.0375
     29 H          15.0328   32.8536   90.6151 H       1  UNL1        0.0278
     30 H          14.7213   34.4543   89.9874 H       1  UNL1        0.0278
     31 H          15.3719   34.2585   91.5972 H       1  UNL1        0.0278
     32 H          16.9529   36.0033   90.2217 H       1  UNL1        0.0623
     33 H          18.7797   37.2889   89.6451 H       1  UNL1        0.0278
     34 H          19.6594   36.6854   88.2612 H       1  UNL1        0.0278
     35 H          20.3157   36.4864   89.8683 H       1  UNL1        0.0278
     36 H          20.3514   31.7671   88.3355 H       1  UNL1        0.0278
     37 H          18.8030   31.0680   87.9267 H       1  UNL1        0.0278
     38 H          19.4526   30.8715   89.5369 H       1  UNL1        0.0278
     39 H          16.9147   31.8504   89.7323 H       1  UNL1        0.0623
     40 H          21.2818   35.8553   89.4992 H       1  UNL1        0.0616
     41 H          21.5650   35.4062   86.9963 H       1  UNL1        0.0336
     42 H          19.8186   35.3675   87.0094 H       1  UNL1        0.0336
     43 H          23.2742   34.1792   86.6469 H       1  UNL1        0.1788
     44 H          22.5798   34.2373   83.2044 H       1  UNL1        0.1465
     45 H          23.9860   35.1028   82.7788 H       1  UNL1        0.1465
     46 H          17.9436   34.3765   85.9928 H       1  UNL1        0.0629
     47 H          16.2074   32.7978   85.3804 H       1  UNL1        0.0623
     48 H          16.9403   30.4711   84.7131 H       1  UNL1        0.0693
@<TRIPOS>BOND
     1     1    16    1
     2     1     7    1
     3     1    11    1
     4     1    28    1
     5     2     3    1
     6     2    29    1
     7     2    30    1
     8     2    31    1
     9     3    10   ar
    10     3     4   ar
    11     4     5   ar
    12     4    32    1
    13     5     7   ar
    14     5     6    1
    15     6    33    1
    16     6    34    1
    17     6    35    1
    18     7     8   ar
    19     8     9    1
    20     8    10   ar
    21     9    36    1
    22     9    37    1
    23     9    38    1
    24    10    39    1
    25    11    12    1
    26    11    14    1
    27    11    40    1
    28    12    13    3
    29    14    15    3
    30    16    17    1
    31    16    41    1
    32    16    42    1
    33    17    18    2
    34    17    23    1
    35    18    19    1
    36    19    20   am
    37    19    43    1
    38    20    21   am
    39    20    22    2
    40    21    44    1
    41    21    45    1
    42    23    27   ar
    43    23    24   ar
    44    24    25   ar
    45    24    46    1
    46    25    26   ar
    47    25    47    1
    48    26    27   ar
    49    26    48    1
