@<TRIPOS>MOLECULE
*****
 48 50 0 0 0
SMALL
GASTEIGER

@<TRIPOS>ATOM
      1 N          19.1400   33.6370   89.5790 N.am    1  UNL1       -0.2748
      2 C          19.8450   34.6870   89.1150 C.2     1  UNL1        0.2571
      3 O          19.2660   35.6750   88.7010 O.2     1  UNL1       -0.2692
      4 C          21.2610   34.6430   89.1100 C.ar    1  UNL1        0.0973
      5 C          22.1380   35.2340   89.9930 C.ar    1  UNL1        0.0536
      6 C          23.5640   35.0420   89.7820 C.ar    1  UNL1        0.0320
      7 C          24.6470   35.5400   90.5490 C.ar    1  UNL1       -0.0373
      8 C          24.3930   36.3890   91.7690 C.3     1  UNL1       -0.0390
      9 C          25.9310   35.2390   90.1630 C.ar    1  UNL1       -0.0371
     10 C          26.1620   34.4590   89.0400 C.ar    1  UNL1        0.0398
     11 C          27.5760   34.1360   88.6290 C.3     1  UNL1       -0.0223
     12 N          25.1520   33.9960   88.3290 N.ar    1  UNL1       -0.2447
     13 C          23.9050   34.2570   88.6570 C.ar    1  UNL1        0.1112
     14 S          22.3360   33.8160   87.9530 S.2     1  UNL1       -0.0622
     15 N          21.6720   35.9910   91.0590 N.pl3   1  UNL1       -0.3564
     16 C          16.9070   34.0970   90.6050 C.ar    1  UNL1        0.0906
     17 C          15.4900   34.0410   90.3340 C.ar    1  UNL1       -0.0247
     18 C          14.4750   34.4720   91.3610 C.3     1  UNL1       -0.0381
     19 C          15.1140   33.5900   89.1240 C.ar    1  UNL1       -0.0078
     20 C          13.7180   33.4290   88.5790 C.3     1  UNL1       -0.0331
     21 S          16.6610   33.2270   88.3210 S.2     1  UNL1       -0.0776
     22 C          17.7560   33.6800   89.5840 C.ar    1  UNL1        0.0865
     23 C          17.4250   34.5720   91.8890 C.2     1  UNL1        0.3418
     24 O          17.8660   35.7020   91.9870 O.2     1  UNL1       -0.2449
     25 O          17.4140   33.7570   92.9640 O.3     1  UNL1       -0.4614
     26 C          15.6610   33.0650   94.5060 C.3     1  UNL1       -0.0306
     27 C          16.6260   34.1840   94.1060 C.3     1  UNL1        0.0900
     28 H          19.6089   32.8390   89.9146 H       1  UNL1        0.1557
     29 H          23.3388   36.5114   91.9052 H       1  UNL1        0.0278
     30 H          24.8493   37.3478   91.6376 H       1  UNL1        0.0278
     31 H          24.8107   35.9102   92.6300 H       1  UNL1        0.0278
     32 H          26.7285   35.5957   90.7124 H       1  UNL1        0.0638
     33 H          28.2596   34.5908   89.3151 H       1  UNL1        0.0292
     34 H          27.7559   34.5127   87.6438 H       1  UNL1        0.0292
     35 H          27.7161   33.0752   88.6364 H       1  UNL1        0.0292
     36 H          20.7039   36.1129   91.1902 H       1  UNL1        0.1424
     37 H          22.3095   36.4060   91.6839 H       1  UNL1        0.1424
     38 H          14.9796   34.7943   92.2478 H       1  UNL1        0.0278
     39 H          13.8329   33.6488   91.5952 H       1  UNL1        0.0278
     40 H          13.8918   35.2790   90.9692 H       1  UNL1        0.0278
     41 H          13.0087   33.7382   89.3181 H       1  UNL1        0.0283
     42 H          13.5487   32.4023   88.3296 H       1  UNL1        0.0283
     43 H          13.6056   34.0322   87.7024 H       1  UNL1        0.0283
     44 H          15.0799   33.3791   95.3477 H       1  UNL1        0.0262
     45 H          16.2183   32.1888   94.7643 H       1  UNL1        0.0262
     46 H          15.0104   32.8449   93.6856 H       1  UNL1        0.0262
     47 H          16.0689   35.0602   93.8476 H       1  UNL1        0.0695
     48 H          17.2766   34.4046   94.9263 H       1  UNL1        0.0695
@<TRIPOS>BOND
     1     1     2   am
     2     1    22    1
     3     1    28    1
     4     2     3    2
     5     2     4    1
     6     4    14   ar
     7     4     5   ar
     8     5     6   ar
     9     5    15    1
    10     6    13   ar
    11     6     7   ar
    12     7     9   ar
    13     7     8    1
    14     8    29    1
    15     8    30    1
    16     8    31    1
    17     9    10   ar
    18     9    32    1
    19    10    12   ar
    20    10    11    1
    21    11    33    1
    22    11    34    1
    23    11    35    1
    24    12    13   ar
    25    13    14   ar
    26    15    36    1
    27    15    37    1
    28    16    22   ar
    29    16    17   ar
    30    16    23    1
    31    17    19   ar
    32    17    18    1
    33    18    38    1
    34    18    39    1
    35    18    40    1
    36    19    21   ar
    37    19    20    1
    38    20    41    1
    39    20    42    1
    40    20    43    1
    41    21    22   ar
    42    23    24    2
    43    23    25    1
    44    25    27    1
    45    26    27    1
    46    26    44    1
    47    26    45    1
    48    26    46    1
    49    27    47    1
    50    27    48    1
