@<TRIPOS>MOLECULE
*****
 58 62 0 0 0
SMALL
GASTEIGER

@<TRIPOS>ATOM
      1 C          16.1340   34.0010   92.3700 C.ar    1  UNL1        0.1635
      2 C          15.6470   33.6960   91.1180 C.ar    1  UNL1        0.0098
      3 C          16.4740   33.8540   90.0000 C.ar    1  UNL1        0.0785
      4 C          17.7990   34.3260   90.1740 C.ar    1  UNL1        0.0301
      5 C          18.6120   34.4770   89.0220 C.ar    1  UNL1        0.0840
      6 N          18.0880   34.1670   87.8380 N.ar    1  UNL1       -0.2347
      7 C          16.8440   33.7300   87.7280 C.ar    1  UNL1        0.1173
      8 C          18.2690   34.6290   91.4560 C.ar    1  UNL1       -0.0051
      9 N          16.0480   33.5710   88.7590 N.ar    1  UNL1       -0.2353
     10 C          17.4440   34.4720   92.5340 C.ar    1  UNL1        0.1626
     11 C          20.0000   34.9630   89.1320 C.ar    1  UNL1        0.0261
     12 C          20.4090   36.1370   89.6850 C.ar    1  UNL1        0.0120
     13 N          21.7620   36.2370   89.6010 N.ar    1  UNL1       -0.3599
     14 C          22.2890   35.1200   88.9860 C.ar    1  UNL1        0.0499
     15 C          23.5850   34.7340   88.6620 C.ar    1  UNL1       -0.0011
     16 C          23.8070   33.5200   88.0440 C.ar    1  UNL1        0.1436
     17 F          25.0680   33.1460   87.7370 F       1  UNL1       -0.2039
     18 C          22.7440   32.6820   87.7270 C.ar    1  UNL1        0.0768
     19 CL         23.0440   31.1650   86.9400 Cl      1  UNL1       -0.0806
     20 C          21.4520   33.0520   88.0360 C.ar    1  UNL1       -0.0308
     21 C          21.2160   34.2710   88.6690 C.ar    1  UNL1        0.0104
     22 C          15.5420   32.6840   94.2590 C.3     1  UNL1        0.0790
     23 O          15.3330   33.8480   93.4580 O.3     1  UNL1       -0.4914
     24 O          17.9000   34.7730   93.7800 O.3     1  UNL1       -0.4881
     25 C          17.5850   36.0700   94.2900 C.3     1  UNL1        0.0946
     26 C          16.8050   35.9260   95.5990 C.3     1  UNL1        0.0217
     27 C          17.1440   37.0950   96.5250 C.3     1  UNL1       -0.0286
     28 N          16.0660   38.0910   96.4720 N.4     1  UNL1        0.2386
     29 C          16.1500   38.9670   97.6480 C.3     1  UNL1       -0.0078
     30 C          15.0260   40.0050   97.5900 C.3     1  UNL1        0.0878
     31 O          13.7660   39.3320   97.5240 O.3     1  UNL1       -0.3693
     32 C          13.6450   38.4480   96.4070 C.3     1  UNL1        0.0878
     33 C          14.7650   37.4070   96.4640 C.3     1  UNL1       -0.0078
     34 H          14.6800   33.3537   91.0053 H       1  UNL1        0.0677
     35 H          16.4831   33.5038   86.7880 H       1  UNL1        0.1047
     36 H          19.2343   34.9695   91.5872 H       1  UNL1        0.0662
     37 H          19.7861   36.8446   90.1048 H       1  UNL1        0.0814
     38 H          22.2909   36.9985   89.9321 H       1  UNL1        0.1654
     39 H          24.3796   35.3543   88.8833 H       1  UNL1        0.0667
     40 H          20.6637   32.4293   87.7997 H       1  UNL1        0.0640
     41 H          14.8518   32.6851   95.0767 H       1  UNL1        0.0660
     42 H          16.5430   32.6863   94.6371 H       1  UNL1        0.0660
     43 H          15.3878   31.8087   93.6632 H       1  UNL1        0.0660
     44 H          16.9894   36.5994   93.5759 H       1  UNL1        0.0698
     45 H          18.4895   36.6123   94.4708 H       1  UNL1        0.0698
     46 H          17.0723   35.0053   96.0742 H       1  UNL1        0.0350
     47 H          15.7554   35.9281   95.3911 H       1  UNL1        0.0350
     48 H          18.0616   37.5456   96.2090 H       1  UNL1        0.0815
     49 H          17.2490   36.7365   97.5277 H       1  UNL1        0.0815
     50 H          16.1618   38.6493   95.6237 H       1  UNL1        0.2035
     51 H          17.0966   39.4658   97.6547 H       1  UNL1        0.0837
     52 H          16.0502   38.3813   98.5379 H       1  UNL1        0.0837
     53 H          15.1499   40.6182   96.7219 H       1  UNL1        0.0613
     54 H          15.0594   40.6196   98.4652 H       1  UNL1        0.0613
     55 H          13.7225   39.0074   95.4982 H       1  UNL1        0.0613
     56 H          12.6955   37.9559   96.4399 H       1  UNL1        0.0613
     57 H          14.6637   36.8218   97.3540 H       1  UNL1        0.0837
     58 H          14.7025   36.7670   95.6088 H       1  UNL1        0.0837
@<TRIPOS>BOND
     1     1     2   ar
     2     1    10   ar
     3     1    23    1
     4     2     3   ar
     5     2    34    1
     6     3     9   ar
     7     3     4   ar
     8     4     5   ar
     9     4     8   ar
    10     5     6   ar
    11     5    11    1
    12     6     7   ar
    13     7     9   ar
    14     7    35    1
    15     8    10   ar
    16     8    36    1
    17    10    24    1
    18    11    21   ar
    19    11    12   ar
    20    12    13   ar
    21    12    37    1
    22    13    14   ar
    23    13    38    1
    24    14    15   ar
    25    14    21   ar
    26    15    16   ar
    27    15    39    1
    28    16    18   ar
    29    16    17    1
    30    18    19    1
    31    18    20   ar
    32    20    21   ar
    33    20    40    1
    34    22    23    1
    35    22    41    1
    36    22    42    1
    37    22    43    1
    38    24    25    1
    39    25    26    1
    40    25    44    1
    41    25    45    1
    42    26    27    1
    43    26    46    1
    44    26    47    1
    45    27    28    1
    46    27    48    1
    47    27    49    1
    48    28    33    1
    49    28    29    1
    50    28    50    1
    51    29    30    1
    52    29    51    1
    53    29    52    1
    54    30    31    1
    55    30    53    1
    56    30    54    1
    57    31    32    1
    58    32    33    1
    59    32    55    1
    60    32    56    1
    61    33    57    1
    62    33    58    1
