@<TRIPOS>MOLECULE
*****
 50 52 0 0 0
SMALL
GASTEIGER

@<TRIPOS>ATOM
      1 N          19.0640   34.5360   90.3440 N.ar    1  UNL1       -0.3023
      2 C          20.4170   34.3960   90.5480 C.ar    1  UNL1        0.1666
      3 N          20.6620   34.7700   91.7820 N.ar    1  UNL1       -0.1282
      4 N          19.5680   35.1250   92.3580 N.ar    1  UNL1       -0.1221
      5 C          18.5590   34.9990   91.5260 C.ar    1  UNL1        0.1923
      6 C          21.4100   33.9210   89.5620 C.ar    1  UNL1        0.0399
      7 C          21.5570   32.5550   89.3170 C.ar    1  UNL1       -0.0493
      8 C          22.4850   32.1160   88.3960 C.ar    1  UNL1       -0.0610
      9 C          23.2740   33.0260   87.7120 C.ar    1  UNL1       -0.0600
     10 C          23.1400   34.3810   87.9450 C.ar    1  UNL1       -0.0404
     11 C          22.2100   34.8390   88.8680 C.ar    1  UNL1        0.0354
     12 N          22.0730   36.2070   89.1050 N.pl3   1  UNL1       -0.3574
     13 C          17.8480   32.7920   89.1360 C.3     1  UNL1       -0.0470
     14 C          18.3190   34.2470   89.1160 C.3     1  UNL1        0.0243
     15 S          16.8710   35.3660   91.8700 S.3     1  UNL1       -0.0766
     16 C          16.7690   34.7990   93.5860 C.3     1  UNL1        0.0779
     17 C          16.9410   35.9730   94.5140 C.2     1  UNL1        0.2275
     18 N          16.4360   35.9250   95.7630 N.am    1  UNL1       -0.2846
     19 O          17.5340   36.9630   94.1380 O.2     1  UNL1       -0.2746
     20 C          16.5100   37.0510   96.5910 C.ar    1  UNL1        0.0366
     21 C          17.6880   37.3440   97.2640 C.ar    1  UNL1       -0.0402
     22 C          17.7580   38.4550   98.0820 C.ar    1  UNL1       -0.0597
     23 C          16.6550   39.2770   98.2290 C.ar    1  UNL1       -0.0585
     24 C          15.4800   38.9880   97.5600 C.ar    1  UNL1       -0.0458
     25 C          14.2810   39.8850   97.7230 C.3     1  UNL1       -0.0394
     26 C          15.4060   37.8810   96.7360 C.ar    1  UNL1       -0.0263
     27 C          14.1270   37.5700   96.0030 C.3     1  UNL1       -0.0377
     28 H          20.9715   31.8736   89.8248 H       1  UNL1        0.0625
     29 H          22.5919   31.1055   88.2158 H       1  UNL1        0.0618
     30 H          23.9661   32.6898   87.0242 H       1  UNL1        0.0618
     31 H          23.7318   35.0533   87.4324 H       1  UNL1        0.0636
     32 H          21.4126   36.5294   89.7602 H       1  UNL1        0.1423
     33 H          22.6367   36.8500   88.6171 H       1  UNL1        0.1423
     34 H          17.3039   32.5809   88.2392 H       1  UNL1        0.0247
     35 H          17.2141   32.6339   89.9834 H       1  UNL1        0.0247
     36 H          18.6965   32.1433   89.1994 H       1  UNL1        0.0247
     37 H          18.9530   34.4051   88.2686 H       1  UNL1        0.0490
     38 H          17.4705   34.8958   89.0525 H       1  UNL1        0.0490
     39 H          17.5413   34.0819   93.7712 H       1  UNL1        0.0475
     40 H          15.8142   34.3470   93.7560 H       1  UNL1        0.0475
     41 H          16.0153   35.0982   96.0926 H       1  UNL1        0.1548
     42 H          18.5115   36.7319   97.1533 H       1  UNL1        0.0636
     43 H          18.6334   38.6719   98.5836 H       1  UNL1        0.0618
     44 H          16.7093   40.1075   98.8392 H       1  UNL1        0.0620
     45 H          14.5217   40.6840   98.3928 H       1  UNL1        0.0278
     46 H          13.4642   39.3198   98.1209 H       1  UNL1        0.0278
     47 H          14.0053   40.2884   96.7711 H       1  UNL1        0.0278
     48 H          14.2574   36.6833   95.4186 H       1  UNL1        0.0278
     49 H          13.8768   38.3876   95.3597 H       1  UNL1        0.0278
     50 H          13.3385   37.4183   96.7102 H       1  UNL1        0.0278
@<TRIPOS>BOND
     1     1    14    1
     2     1     2   ar
     3     1     5   ar
     4     2     6    1
     5     2     3   ar
     6     3     4   ar
     7     4     5   ar
     8     5    15    1
     9     6    11   ar
    10     6     7   ar
    11     7     8   ar
    12     7    28    1
    13     8     9   ar
    14     8    29    1
    15     9    10   ar
    16     9    30    1
    17    10    11   ar
    18    10    31    1
    19    11    12    1
    20    12    32    1
    21    12    33    1
    22    13    14    1
    23    13    34    1
    24    13    35    1
    25    13    36    1
    26    14    37    1
    27    14    38    1
    28    15    16    1
    29    16    17    1
    30    16    39    1
    31    16    40    1
    32    17    19    2
    33    17    18   am
    34    18    20    1
    35    18    41    1
    36    20    26   ar
    37    20    21   ar
    38    21    22   ar
    39    21    42    1
    40    22    23   ar
    41    22    43    1
    42    23    24   ar
    43    23    44    1
    44    24    26   ar
    45    24    25    1
    46    25    45    1
    47    25    46    1
    48    25    47    1
    49    26    27    1
    50    27    48    1
    51    27    49    1
    52    27    50    1
