@<TRIPOS>MOLECULE
*****
 49 50 0 0 0
SMALL
GASTEIGER

@<TRIPOS>ATOM
      1 N          16.5280   35.9110   93.0820 N.am    1  UNL1       -0.3054
      2 C          16.0970   34.6910   92.7020 C.2     1  UNL1        0.2306
      3 O          16.5750   33.6970   93.2060 O.2     1  UNL1       -0.2741
      4 C          17.5760   36.0350   94.0990 C.3     1  UNL1        0.0881
      5 N          16.2860   37.1720   95.8770 N.am    1  UNL1       -0.3109
      6 C          16.9460   36.0710   95.4680 C.2     1  UNL1        0.2304
      7 O          17.0340   35.1090   96.2010 O.2     1  UNL1       -0.2741
      8 C          17.7730   38.1810   98.1480 C.3     1  UNL1       -0.0607
      9 C          16.2620   38.3710   98.0090 C.3     1  UNL1       -0.0254
     10 C          15.9770   39.6870   97.2810 C.3     1  UNL1       -0.0488
     11 C          14.4650   39.8760   97.1420 C.3     1  UNL1       -0.0527
     12 C          13.8780   38.7120   96.3400 C.3     1  UNL1       -0.0514
     13 C          14.1620   37.3970   97.0680 C.3     1  UNL1       -0.0343
     14 C          15.6740   37.2070   97.2070 C.3     1  UNL1        0.0257
     15 C          15.0250   34.5640   91.6520 C.3     1  UNL1        0.0884
     16 N          15.5130   33.7250   90.5550 N.am    1  UNL1       -0.3027
     17 C          16.5530   34.1360   89.8030 C.2     1  UNL1        0.2459
     18 O          17.0870   35.2030   90.0360 O.2     1  UNL1       -0.2701
     19 C          17.0470   33.2900   88.6970 C.ar    1  UNL1        0.0551
     20 C          18.1900   32.5060   88.8710 C.ar    1  UNL1       -0.0468
     21 C          18.6420   31.7150   87.8370 C.ar    1  UNL1       -0.0426
     22 C          17.9710   31.7010   86.6250 C.ar    1  UNL1        0.0424
     23 CL         18.5520   30.7060   85.3270 Cl      1  UNL1       -0.0835
     24 C          16.8410   32.4780   86.4440 C.ar    1  UNL1       -0.0243
     25 C          16.3750   33.2730   87.4730 C.ar    1  UNL1        0.0544
     26 CL         14.9560   34.2470   87.2460 Cl      1  UNL1       -0.0827
     27 H          16.1384   36.7189   92.6760 H       1  UNL1        0.1492
     28 H          18.1263   36.9380   93.9358 H       1  UNL1        0.0558
     29 H          18.2380   35.1970   94.0330 H       1  UNL1        0.0558
     30 H          16.2151   37.9530   95.2818 H       1  UNL1        0.1490
     31 H          17.9715   37.2610   98.6569 H       1  UNL1        0.0233
     32 H          18.1847   38.9944   98.7081 H       1  UNL1        0.0233
     33 H          18.2201   38.1547   97.1762 H       1  UNL1        0.0233
     34 H          15.8151   38.3975   98.9808 H       1  UNL1        0.0316
     35 H          16.4240   39.6611   96.3092 H       1  UNL1        0.0268
     36 H          16.3881   40.5007   97.8411 H       1  UNL1        0.0268
     37 H          14.2656   40.7961   96.6335 H       1  UNL1        0.0265
     38 H          14.0175   39.9018   98.1136 H       1  UNL1        0.0265
     39 H          14.3263   38.6861   95.3688 H       1  UNL1        0.0266
     40 H          12.8208   38.8440   96.2413 H       1  UNL1        0.0266
     41 H          13.7503   36.5833   96.5082 H       1  UNL1        0.0283
     42 H          13.7151   37.4237   98.0398 H       1  UNL1        0.0283
     43 H          15.8731   36.2867   97.7152 H       1  UNL1        0.0501
     44 H          14.7775   35.5346   91.2758 H       1  UNL1        0.0558
     45 H          14.1544   34.1160   92.0835 H       1  UNL1        0.0558
     46 H          15.0811   32.8605   90.3670 H       1  UNL1        0.1495
     47 H          18.6944   32.5191   89.7712 H       1  UNL1        0.0626
     48 H          19.4831   31.1311   87.9659 H       1  UNL1        0.0632
     49 H          16.3454   32.4637   85.5389 H       1  UNL1        0.0647
@<TRIPOS>BOND
     1     1     2   am
     2     1     4    1
     3     1    27    1
     4     2    15    1
     5     2     3    2
     6     4     6    1
     7     4    28    1
     8     4    29    1
     9     5     6   am
    10     5    14    1
    11     5    30    1
    12     6     7    2
    13     8     9    1
    14     8    31    1
    15     8    32    1
    16     8    33    1
    17     9    14    1
    18     9    10    1
    19     9    34    1
    20    10    11    1
    21    10    35    1
    22    10    36    1
    23    11    12    1
    24    11    37    1
    25    11    38    1
    26    12    13    1
    27    12    39    1
    28    12    40    1
    29    13    14    1
    30    13    41    1
    31    13    42    1
    32    14    43    1
    33    15    16    1
    34    15    44    1
    35    15    45    1
    36    16    17   am
    37    16    46    1
    38    17    19    1
    39    17    18    2
    40    19    25   ar
    41    19    20   ar
    42    20    21   ar
    43    20    47    1
    44    21    22   ar
    45    21    48    1
    46    22    23    1
    47    22    24   ar
    48    24    25   ar
    49    24    49    1
    50    25    26    1
