@<TRIPOS>MOLECULE
*****
 57 62 0 0 0
SMALL
GASTEIGER

@<TRIPOS>ATOM
      1 C          17.8090   34.5730   91.1880 C.ar    1  UNL1        0.0220
      2 C          17.2580   33.7160   90.2910 C.ar    1  UNL1       -0.0208
      3 C          17.8030   33.6060   88.9980 C.ar    1  UNL1        0.0804
      4 C          18.9200   34.4290   88.7420 C.ar    1  UNL1        0.0592
      5 C          19.5620   34.4290   87.5150 C.ar    1  UNL1        0.0487
      6 C          19.0710   33.5810   86.5210 C.ar    1  UNL1       -0.0213
      7 C          17.9740   32.7900   86.8150 C.ar    1  UNL1        0.0301
      8 N          17.3870   32.8110   87.9850 N.ar    1  UNL1       -0.2543
      9 S          19.1510   35.3040   90.2680 S.2     1  UNL1       -0.0848
     10 C          16.1020   34.2470   94.5180 C.ar    1  UNL1       -0.0530
     11 C          16.4860   33.9920   93.2180 C.ar    1  UNL1       -0.0531
     12 C          17.3940   34.8400   92.5830 C.ar    1  UNL1       -0.0112
     13 C          17.9080   35.9410   93.2680 C.ar    1  UNL1       -0.0531
     14 C          17.5160   36.1840   94.5690 C.ar    1  UNL1       -0.0530
     15 C          16.6160   35.3400   95.1930 C.ar    1  UNL1       -0.0029
     16 C          16.1920   35.6120   96.6140 C.3     1  UNL1       -0.0058
     17 N          15.6960   36.9910   96.7210 N.4     1  UNL1        0.2417
     18 C          15.9060   37.5230   98.0750 C.3     1  UNL1       -0.0075
     19 C          15.4300   38.9770   98.1250 C.3     1  UNL1        0.0878
     20 O          14.0590   39.0390   97.7250 O.3     1  UNL1       -0.3693
     21 C          13.8190   38.5300   96.4110 C.3     1  UNL1        0.0878
     22 C          14.2780   37.0710   96.3430 C.3     1  UNL1       -0.0075
     23 N          20.6630   35.2490   87.2790 N.pl3   1  UNL1       -0.3135
     24 C          21.9580   34.7590   87.4870 C.ar    1  UNL1        0.0320
     25 C          22.4670   33.7670   86.6510 C.ar    1  UNL1       -0.0386
     26 C          23.7380   33.2740   86.8410 C.ar    1  UNL1       -0.0361
     27 C          24.5270   33.7680   87.8750 C.ar    1  UNL1        0.0466
     28 C          24.0180   34.7690   88.7210 C.ar    1  UNL1        0.0014
     29 C          25.0790   35.0630   89.6870 C.ar    1  UNL1       -0.0366
     30 C          26.1150   34.2650   89.3880 C.ar    1  UNL1        0.0027
     31 N          25.8060   33.4830   88.3080 N.ar    1  UNL1       -0.3606
     32 C          22.7290   35.2660   88.5150 C.ar    1  UNL1       -0.0314
     33 H          16.4401   33.1456   90.5569 H       1  UNL1        0.0650
     34 H          19.5149   33.5447   85.5900 H       1  UNL1        0.0652
     35 H          17.6052   32.1605   86.0851 H       1  UNL1        0.0830
     36 H          15.4297   33.6211   94.9883 H       1  UNL1        0.0622
     37 H          16.1026   33.1758   92.7161 H       1  UNL1        0.0624
     38 H          18.5795   36.5721   92.8034 H       1  UNL1        0.0624
     39 H          17.8957   36.9979   95.0773 H       1  UNL1        0.0622
     40 H          17.0295   35.4824   97.2672 H       1  UNL1        0.0867
     41 H          15.4150   34.9307   96.8913 H       1  UNL1        0.0867
     42 H          16.2298   37.5664   96.0695 H       1  UNL1        0.2038
     43 H          16.9468   37.4787   98.3193 H       1  UNL1        0.0837
     44 H          15.3519   36.9393   98.7801 H       1  UNL1        0.0837
     45 H          16.0233   39.5704   97.4611 H       1  UNL1        0.0613
     46 H          15.5301   39.3530   99.1218 H       1  UNL1        0.0613
     47 H          14.3655   39.1104   95.6973 H       1  UNL1        0.0613
     48 H          12.7739   38.5881   96.1890 H       1  UNL1        0.0613
     49 H          13.6941   36.4806   97.0178 H       1  UNL1        0.0837
     50 H          14.1505   36.7007   95.3473 H       1  UNL1        0.0837
     51 H          20.5306   36.1730   86.9660 H       1  UNL1        0.1522
     52 H          21.8855   33.3985   85.8822 H       1  UNL1        0.0637
     53 H          24.1054   32.5386   86.2171 H       1  UNL1        0.0639
     54 H          25.0374   35.7535   90.4528 H       1  UNL1        0.0638
     55 H          27.0124   34.2438   89.8971 H       1  UNL1        0.0807
     56 H          26.4062   32.8171   87.9011 H       1  UNL1        0.1653
     57 H          22.3548   36.0077   89.1273 H       1  UNL1        0.0643
@<TRIPOS>BOND
     1     1     9   ar
     2     1     2   ar
     3     1    12    1
     4     2     3   ar
     5     2    33    1
     6     3     8   ar
     7     3     4   ar
     8     4     5   ar
     9     4     9   ar
    10     5     6   ar
    11     5    23    1
    12     6     7   ar
    13     6    34    1
    14     7     8   ar
    15     7    35    1
    16    10    11   ar
    17    10    15   ar
    18    10    36    1
    19    11    12   ar
    20    11    37    1
    21    12    13   ar
    22    13    14   ar
    23    13    38    1
    24    14    15   ar
    25    14    39    1
    26    15    16    1
    27    16    17    1
    28    16    40    1
    29    16    41    1
    30    17    22    1
    31    17    18    1
    32    17    42    1
    33    18    19    1
    34    18    43    1
    35    18    44    1
    36    19    20    1
    37    19    45    1
    38    19    46    1
    39    20    21    1
    40    21    22    1
    41    21    47    1
    42    21    48    1
    43    22    49    1
    44    22    50    1
    45    23    24    1
    46    23    51    1
    47    24    25   ar
    48    24    32   ar
    49    25    26   ar
    50    25    52    1
    51    26    27   ar
    52    26    53    1
    53    27    31   ar
    54    27    28   ar
    55    28    32   ar
    56    28    29   ar
    57    29    30   ar
    58    29    54    1
    59    30    31   ar
    60    30    55    1
    61    31    56    1
    62    32    57    1
