# Name:          seed_class_3
# Creation time: Mon Sep  1 00:41:03 2014


@<TRIPOS>MOLECULE
seed_class_3
    7     6     1     1     1
SMALL
USER_CHARGES


@<TRIPOS>ATOM
      1 H          56.3130   24.9598   45.5690 H.spc      1 <1>        0.000
      2 P26        55.3850   24.7410   45.8960 P.3        1 <1>        0.000
      3 O27        55.3990   23.8617   47.0988 O.2        1 <1>        0.000
      4 O28        54.6860   24.0363   44.6411 O.3        1 <1>        0.000
      5 O29        54.7987   26.1978   46.2024 O.3        1 <1>        0.000
      6 H24        53.7956   23.7954   44.8685 H.spc      1 <1>        0.000
      7 H25        53.9083   26.1195   46.5243 H.spc      1 <1>        0.000
@<TRIPOS>BOND
     1    1    2 1  
     2    2    5 1  
     3    2    4 1  
     4    2    3 2  
     5    4    6 1  
     6    5    7 1  
# Name:          seed_class_3
# Creation time: Mon Sep  1 00:41:03 2014


@<TRIPOS>MOLECULE
seed_class_3
    7     6     1     1     1
SMALL
USER_CHARGES


@<TRIPOS>ATOM
      1 H          56.3130   24.9598   45.5690 H.spc      1 <1>        0.000
      2 P26        55.3850   24.7410   45.8960 P.3        1 <1>        0.000
      3 O27        55.3990   23.8617   47.0988 O.2        1 <1>        0.000
      4 O28        54.6860   24.0363   44.6411 O.3        1 <1>        0.000
      5 O29        54.7987   26.1978   46.2024 O.3        1 <1>        0.000
      6 H24        53.7956   23.7954   44.8685 H.spc      1 <1>        0.000
      7 H25        53.9083   26.1195   46.5243 H.spc      1 <1>        0.000
@<TRIPOS>BOND
     1    1    2 1  
     2    2    5 1  
     3    2    4 1  
     4    2    3 2  
     5    4    6 1  
     6    5    7 1  
