# Name:          seed_class_1
# Creation time: Mon Sep  1 00:41:03 2014


@<TRIPOS>MOLECULE
seed_class_1
    3     2     1     1     1
SMALL
USER_CHARGES


@<TRIPOS>ATOM
      1 H          55.1468   25.3328   46.0205 H.spc      1 <1>        0.000
      2 H          53.9083   26.1195   46.5243 H.spc      1 <1>        0.000
      3 O29        54.7987   26.1978   46.2024 O.3        1 <1>        0.000
@<TRIPOS>BOND
     1    3    1 1  
     2    3    2 1  
# Name:          seed_class_1
# Creation time: Mon Sep  1 00:41:03 2014


@<TRIPOS>MOLECULE
seed_class_1
    3     2     1     1     1
SMALL
USER_CHARGES


@<TRIPOS>ATOM
      1 H          55.1468   25.3328   46.0205 H.spc      1 <1>        0.000
      2 H          53.9083   26.1195   46.5243 H.spc      1 <1>        0.000
      3 O29        54.7987   26.1978   46.2024 O.3        1 <1>        0.000
@<TRIPOS>BOND
     1    3    1 1  
     2    3    2 1  
