# Name:          seed_class_2
# Creation time: Mon Sep  1 00:41:03 2014


@<TRIPOS>MOLECULE
seed_class_2
   12    12     1     1     1
SMALL
USER_CHARGES


@<TRIPOS>ATOM
      1 H          60.2749   33.2697   48.7353 H.spc      1 <1>        0.000
      2 C16        61.3532   33.3081   48.8394 C.ar       1 <1>        0.000
      3 C17        61.9052   33.4531   50.1314 C.ar       1 <1>        0.000
      4 C18        63.2982   33.4831   50.2434 C.ar       1 <1>        0.000
      5 C19        64.1152   33.3631   49.0624 C.ar       1 <1>        0.000
      6 C20        63.6022   33.2211   47.7844 C.ar       1 <1>        0.000
      7 C21        62.2172   33.1941   47.6774 C.ar       1 <1>        0.000
      8 H12        61.2704   33.5382   51.0060 H.spc      1 <1>        0.000
      9 H13        63.7628   33.5964   51.2162 H.spc      1 <1>        0.000
     10 H14        65.1924   33.3853   49.1814 H.spc      1 <1>        0.000
     11 H15        64.2451   33.1358   46.9158 H.spc      1 <1>        0.000
     12 H16        61.7678   33.0846   46.6970 H.spc      1 <1>        0.000
@<TRIPOS>BOND
     1    1    2 1  
     2    2    7 ar 
     3    2    3 ar 
     4    3    8 1  
     5    3    4 ar 
     6    4    9 1  
     7    4    5 ar 
     8    5   10 1  
     9    5    6 ar 
    10    6   11 1  
    11    6    7 ar 
    12    7   12 1  
# Name:          seed_class_2
# Creation time: Mon Sep  1 00:41:03 2014


@<TRIPOS>MOLECULE
seed_class_2
   12    12     1     1     1
SMALL
USER_CHARGES


@<TRIPOS>ATOM
      1 H14        65.1924   33.3853   49.1814 H.spc      1 <1>        0.000
      2 C19        64.1152   33.3631   49.0624 C.ar       1 <1>        0.000
      3 C18        63.2982   33.4831   50.2434 C.ar       1 <1>        0.000
      4 C17        61.9052   33.4531   50.1314 C.ar       1 <1>        0.000
      5 C16        61.3532   33.3081   48.8394 C.ar       1 <1>        0.000
      6 C21        62.2172   33.1941   47.6774 C.ar       1 <1>        0.000
      7 C20        63.6022   33.2211   47.7844 C.ar       1 <1>        0.000
      8 H13        63.7628   33.5964   51.2162 H.spc      1 <1>        0.000
      9 H12        61.2704   33.5382   51.0060 H.spc      1 <1>        0.000
     10 H          60.2749   33.2697   48.7353 H.spc      1 <1>        0.000
     11 H16        61.7678   33.0846   46.6970 H.spc      1 <1>        0.000
     12 H15        64.2451   33.1358   46.9158 H.spc      1 <1>        0.000
@<TRIPOS>BOND
     1    1    2 1  
     2    2    7 ar 
     3    2    3 ar 
     4    3    8 1  
     5    3    4 ar 
     6    4    9 1  
     7    4    5 ar 
     8    5   10 1  
     9    5    6 ar 
    10    6   11 1  
    11    6    7 ar 
    12    7   12 1  
