# Name:          seed_class_2
# Creation time: Mon Sep  1 00:41:03 2014


@<TRIPOS>MOLECULE
seed_class_2
    6     5     1     1     1
SMALL
USER_CHARGES


@<TRIPOS>ATOM
      1 H          57.6781   30.9265   44.1561 H.spc      1 <1>        0.000
      2 C11        56.9610   30.1080   44.1140 C.2        1 <1>        0.000
      3 O12        56.0730   30.0040   44.9280 O.2        1 <1>        0.000
      4 N13        57.1363   29.2174   43.1215 N.am       1 <1>        0.000
      5 H6         56.5109   28.4426   43.0287 H.spc      1 <1>        0.000
      6 H23        57.8920   29.3300   42.4763 H.spc      1 <1>        0.000
@<TRIPOS>BOND
     1    1    2 1  
     2    2    4 am 
     3    2    3 2  
     4    4    5 1  
     5    4    6 1  
# Name:          seed_class_2
# Creation time: Mon Sep  1 00:41:03 2014


@<TRIPOS>MOLECULE
seed_class_2
    6     5     1     1     1
SMALL
USER_CHARGES


@<TRIPOS>ATOM
      1 H          57.6781   30.9265   44.1561 H.spc      1 <1>        0.000
      2 C11        56.9610   30.1080   44.1140 C.2        1 <1>        0.000
      3 O12        56.0730   30.0040   44.9280 O.2        1 <1>        0.000
      4 N13        57.1363   29.2174   43.1215 N.am       1 <1>        0.000
      5 H6         56.5109   28.4426   43.0287 H.spc      1 <1>        0.000
      6 H23        57.8920   29.3300   42.4763 H.spc      1 <1>        0.000
@<TRIPOS>BOND
     1    1    2 1  
     2    2    4 am 
     3    2    3 2  
     4    4    5 1  
     5    4    6 1  
