# Name:          00000020
# Creation time: Tue Aug 11 19:18:24 2009


@<TRIPOS>MOLECULE
00000020
   52    55     1     1     1
SMALL
USER_CHARGES


@<TRIPOS>ATOM
      1 H1         24.4910   34.2680    2.1460 H          1 <1>        0.000
      2 H2         22.6300   34.8220    2.8390 H          1 <1>        0.000
      3 N3         23.3740   35.0420    2.1580 N.am       1 <1>        0.300
      4 O4         22.2450   36.8320    1.4820 O.2        1 <1>        0.590
      5 C5         23.1920   36.0800    1.3220 C.2        1 <1>       -0.060
      6 C6         26.0230   39.0850   -1.4090 C.ar       1 <1>        0.270
      7 C7         25.6150   40.1700   -0.6290 C.ar       1 <1>        0.270
      8 C8         24.7200   39.9720    0.4260 C.ar       1 <1>       -0.080
      9 C9         24.2360   38.6900    0.6980 C.ar       1 <1>        0.270
     10 C10        24.1590   36.3140    0.1870 C.ar       1 <1>        0.240
     11 C11        24.5670   35.2290   -0.5940 C.ar       1 <1>        0.270
     12 C12        25.4620   35.4270   -1.6480 C.ar       1 <1>        0.150
     13 C13        25.9460   36.7090   -1.9200 C.ar       1 <1>        0.270
     14 C14        25.5400   37.7990   -1.1400 C.ar       1 <1>        0.240
     15 C15        24.6420   37.6000   -0.0820 C.ar       1 <1>        0.000
     16 H16        26.7190   39.2540   -2.2260 H          1 <1>        0.000
     17 H17        25.9920   41.1660   -0.8410 H          1 <1>        0.000
     18 H18        23.5410   38.5510    1.5200 H          1 <1>        0.000
     19 H19        24.1900   34.2340   -0.3810 H          1 <1>        0.000
     20 H20        26.6410   36.8490   -2.7430 H          1 <1>        0.000
     21 C21        27.3160   33.8510   -2.1430 C.2        1 <1>        0.290
     22 O22        28.1730   34.7060   -1.9880 O.2        1 <1>        0.590
     23 C23        25.9090   34.2450   -2.5020 C.3        1 <1>       -0.250
     24 H24        27.5940   32.8020   -2.0350 H          1 <1>        0.000
     25 H25        25.8670   34.5320   -3.5630 H          1 <1>        0.000
     26 N26        24.3070   41.0660    1.2150 N.4        1 <1>       -0.170
     27 H27        24.7820   41.9680    0.8580 H          1 <1>        0.000
     28 H28        24.5870   40.8940    2.2440 H          1 <1>        0.000
     29 C29        23.7490   33.1360   -2.7970 C.2        1 <1>        0.000
     30 O30        23.0020   32.1910   -2.5930 O.2        1 <1>        0.280
     31 N31        23.3300   34.1850   -3.5420 N.am       1 <1>        0.000
     32 N32        24.9980   33.1380   -2.2780 N.am       1 <1>       -0.080
     33 H33        23.9250   34.9690   -3.7220 H          1 <1>        0.000
     34 H34        22.4050   34.1850   -3.9270 H          1 <1>        0.000
     35 H35        25.3110   32.3630   -1.7260 H          1 <1>        0.000
     36 C36        19.8520   40.0090    2.8550 C.ar       1 <1>        0.270
     37 C37        18.4640   40.1470    2.7680 C.ar       1 <1>        0.270
     38 C38        17.9040   40.9530    1.7740 C.ar       1 <1>        0.270
     39 C39        18.7340   41.6200    0.8680 C.ar       1 <1>        0.180
     40 C40        20.9600   42.1500    0.0450 C.ar       1 <1>        0.270
     41 C41        22.3480   42.0120    0.1320 C.ar       1 <1>        0.270
     42 C42        22.9070   41.2060    1.1260 C.ar       1 <1>       -0.080
     43 C43        22.0780   40.5400    2.0320 C.ar       1 <1>        0.270
     44 C44        20.6870   40.6750    1.9490 C.ar       1 <1>        0.240
     45 C45        20.1250   41.4840    0.9510 C.ar       1 <1>        0.240
     46 H46        20.2730   39.3800    3.6320 H          1 <1>        0.000
     47 H47        17.8210   39.6290    3.4730 H          1 <1>        0.000
     48 H48        16.8260   41.0610    1.7060 H          1 <1>        0.000
     49 H49        18.2850   42.2430    0.1000 H          1 <1>        0.000
     50 H50        20.5380   42.7800   -0.7320 H          1 <1>        0.000
     51 H51        22.9910   42.5310   -0.5730 H          1 <1>        0.000
     52 H52        22.5260   39.9170    2.8000 H          1 <1>        0.000
@<TRIPOS>BOND
     1    3    1 1  
     2    3    2 1  
     3    5    4 2  
     4    3    5 am 
     5    7    6 ar 
     6    6   14 ar 
     7    8    7 ar 
     8    9    8 ar 
     9   15    9 ar 
    10   10   11 ar 
    11   10   15 ar 
    12   11   12 ar 
    13   12   13 ar 
    14   13   14 ar 
    15   14   15 ar 
    16    6   16 1  
    17    7   17 1  
    18    9   18 1  
    19   11   19 1  
    20   13   20 1  
    21    5   10 1  
    22   21   22 2  
    23   21   23 1  
    24   21   24 1  
    25   23   25 1  
    26   12   23 1  
    27   26   27 1  
    28   26   28 1  
    29    8   26 1  
    30   29   30 2  
    31   29   31 am 
    32   29   32 am 
    33   31   33 1  
    34   31   34 1  
    35   32   35 1  
    36   23   32 1  
    37   37   36 ar 
    38   36   44 ar 
    39   38   37 ar 
    40   39   38 ar 
    41   45   39 ar 
    42   40   41 ar 
    43   40   45 ar 
    44   41   42 ar 
    45   42   43 ar 
    46   43   44 ar 
    47   44   45 ar 
    48   36   46 1  
    49   37   47 1  
    50   38   48 1  
    51   39   49 1  
    52   40   50 1  
    53   41   51 1  
    54   43   52 1  
    55   26   42 1  
